99
XYZ file generated by Avogadro.
C     -3.24837    1.04661   -0.25031
C     -3.35815   -0.41558   -0.41652
C      0.41106    1.09990   -0.31283
C      0.29178   -0.37337   -0.29374
C     -2.24762   -1.38591   -0.47204
C     -0.81092   -1.32428   -0.24557
C     -2.15134    2.00534   -0.24733
C     -0.69586    2.08072   -0.29118
C     -0.23935   -2.75857   -0.27116
C     -2.53650   -2.83805   -0.65982
C     -1.32729   -3.69500   -0.53425
C      1.51831   -1.22582   -0.31483
C      1.21627   -2.68380   -0.32081
C     -4.48688    1.88176   -0.17653
C     -2.73226    3.43351   -0.20417
C     -4.19916    3.34261   -0.16961
C     -0.39428    3.54565   -0.28930
C     -1.61882    4.39145   -0.23086
C     -1.46279   -5.16559   -0.57978
C      2.31887   -3.66635   -0.33895
C     -0.39929   -6.13142   -0.28894
C      2.17412   -5.12122   -0.22470
C      1.04422   -6.03810   -0.06290
C      1.59389   -7.45429    0.12196
C      3.01443   -7.39793    0.09580
C      0.50669   -8.37065    0.10948
C     -0.72101   -7.59039   -0.18264
C      3.39298   -5.98542   -0.14427
C      4.76138   -5.52464   -0.41000
C      2.85825   -0.69765   -0.38205
C      3.75854   -3.12025   -0.44466
C      1.84305    1.67406   -0.36521
C      0.94263    4.09138   -0.34080
C      4.96489   -4.04706   -0.52740
C      4.00418   -1.63478   -0.44572
C      3.04455    0.76779   -0.39818
C      2.08785    3.15904   -0.38595
C     -5.82657    1.33697   -0.19708
C     -4.78053   -0.99023   -0.55034
C     -3.85224   -3.36185   -0.93032
C     -2.86018   -5.74478   -0.88872
C     -2.01768   -8.18697   -0.53444
C     -3.12345   -7.24498   -0.89610
C     -4.02455   -4.81912   -1.13255
C     -5.00189   -2.43447   -0.90565
C     -5.99378   -0.12540   -0.34238
C     -1.48207    5.87314   -0.19486
C     -2.60708    6.82470   -0.10500
C     -5.33118    4.30850   -0.21077
C     -5.18867    5.77646   -0.26400
C     -3.93162    6.38387   -0.18015
C     -0.05879    6.47040   -0.24963
C     -2.20827    8.18103   -0.05499
C     -1.00479    8.90081   -0.09045
C      1.13385    5.56316   -0.33588
C      0.17405    7.98471   -0.20214
C     -6.76860    3.74126   -0.22369
C     -6.99196    2.25666   -0.17697
C     -6.41660    6.46938   -0.37096
C     -7.78051    6.14367   -0.41650
C     -7.98860    4.66310   -0.33881
C      6.35192   -3.47871   -0.67221
C      5.38708   -1.08314   -0.52103
C      4.42938    1.32122   -0.45984
C      3.47298    3.71404   -0.44171
C      2.51577    6.11964   -0.38985
C      1.58044    8.53500   -0.23692
C     -9.37679    4.07355   -0.41702
C     -8.37088    1.68822   -0.22266
C     -7.37299   -0.70071   -0.40951
C     -6.37529   -2.97154   -1.13600
C     -5.38524   -5.35077   -1.44274
C     -4.49250   -7.77255   -1.23352
C     -5.44030   -6.75514   -1.44284
C     -6.39121   -4.36373   -1.36314
C     -7.38696   -2.04416   -0.82868
C     -8.38215    0.28475   -0.36151
C     -9.37341    2.66636   -0.35694
C      6.37836   -2.07232   -0.63456
C      5.42718    0.32642   -0.51975
C      4.47178    2.72584   -0.47323
C      3.51356    5.12403   -0.43173
C      2.55843    7.52425   -0.32366
C      1.68662    9.94552   -0.11349
C    -10.42846    5.00898   -0.60308
C     -0.70931   10.28344    0.02302
C      0.62196   11.02878    0.03297
C     -8.94796    6.92636   -0.60687
C    -10.41634    6.52957   -0.72746
C      5.89188   -6.52814   -0.51268
C      4.05228   -8.33690   -0.05177
C      5.47907   -7.87508   -0.33879
C      7.38664   -4.43960   -0.71894
C      7.16810   -5.93873   -0.64667
C     -2.17486   -9.69445   -0.56428
C     -3.47141  -10.13006   -0.91401
C     -4.60815   -9.17998   -1.23341
C     -0.96726  -10.40180   -0.33128
C      0.38295   -9.76701   -0.01352
