1078
angstrom
C  21.6787 26.5085 12.5367
C  21.0097 25.3515 12.5367
C  21.6787 24.1935 12.5367
C  23.0157 24.1935 12.5367
C  23.6837 25.3505 12.5367
C  23.0157 26.5085 12.5367
C  25.0207 25.3505 12.5257
C  25.6897 26.5085 12.5267
C  25.0207 27.6665 12.5477
C  23.6837 27.6665 12.5487
C  21.0097 27.6665 12.5487
C  19.6737 27.6665 12.5607
C  19.0047 26.5085 12.5137
C  19.6737 25.3515 12.5257
C  21.0097 23.0355 12.5257
C  21.6787 21.8775 12.5237
C  23.0157 21.8775 12.5327
C  23.6837 23.0355 12.5257
C  21.0097 20.7195 12.4997
C  21.6787 19.5615 12.4977
C  23.0157 19.5615 12.5177
C  23.6837 20.7195 12.5367
C  21.0107 18.4045 12.4627
C  21.6787 17.2465 12.4607
C  23.0157 17.2455 12.4927
C  23.6837 18.4035 12.5087
C  21.0107 16.0885 12.4147
C  21.6797 14.9305 12.4117
C  23.0157 14.9305 12.4557
C  23.6837 16.0875 12.4967
C  27.0027 26.5085 12.5057
C  28.2147 26.5095 12.4877
C  17.6927 26.5095 12.4577
C  16.4817 26.5105 12.4047
C  21.0117 13.7735 12.3537
C  21.6797 12.6155 12.3517
C  23.0167 12.6155 12.4067
C  23.6837 13.7725 12.4537
C  23.6847 11.4575 12.4047
C  25.0207 11.4565 12.4597
C  25.6877 12.6135 12.5067
C  25.0197 13.7715 12.5087
C  19.6767 13.7755 12.2867
C  19.0097 12.6185 12.2287
C  19.6777 11.4605 12.2157
C  21.0137 11.4595 12.2817
C  27.0007 12.6125 12.5497
C  28.2117 12.6125 12.5897
C  17.6967 12.6185 12.1847
C  16.4857 12.6195 12.1437
H  25.5367 24.4565 12.5157
H  25.5367 28.5605 12.5637
H  23.1677 28.5605 12.5587
H  21.5257 28.5605 12.5487
H  19.1577 28.5595 12.6047
H  19.1577 24.4575 12.5247
H  19.9777 23.0355 12.5177
H  24.7157 23.0355 12.5107
H  19.9777 20.7195 12.4837
H  24.7157 20.7185 12.5537
H  19.9787 18.4045 12.4377
H  24.7157 18.4035 12.5147
H  19.9797 16.0895 12.3807
H  24.7157 16.0875 12.5317
H  23.1687 10.5645 12.3597
H  25.5357 10.5625 12.4667
H  25.5347 14.6645 12.5527
H  19.1607 14.6695 12.2797
H  19.1637 10.5685 12.1537
H  21.5297 10.5655 12.2807
C  12.0097 14.1625 15.1977
C  10.7507 14.8605 14.8247
C  11.0887 15.7645 13.7257
C   8.0217 12.9655 13.2717
C   8.5697 14.2975 13.6407
C   9.5347 14.0665 14.7137
C  13.1387 14.7425 14.4227
C  12.5497 15.6925 13.4807
C  11.9977 12.7215 15.5477
C  10.7257 11.9505 15.5317
C  11.0447 10.6375 14.9717
C  10.6897 16.1075 11.2577
C  10.1517 16.0225 12.6407
C   8.9397 15.2075 12.5647
C   8.5497 11.9425 14.2127
C   9.5227 12.6255 15.0637
C  13.1137 11.8325 15.1297
C  12.5057 10.5655 14.7257
C   9.7337 15.4625 10.3197
C   8.6847 14.8645 11.1447
C  12.1507 16.0355 11.0117
C  13.1007 15.8765 12.1447
C  14.1367 14.9505 11.6907
C  10.6317  9.2065 12.9347
C  10.0997  9.9255 14.1227
C   8.9017 10.6345 13.6757
C  12.0927  9.1345 12.6887
C  12.6307  9.2195 11.3057
C  13.8427 10.0355 11.3817
C  15.0167 12.6195 12.0947
C  14.7297 11.6365 13.1727
C  14.1577 12.3965 14.2847
C   7.7657 12.6225 11.8517
C   8.0327 11.2495 11.3457
C   8.6127 11.4055 10.0117
C  13.0487  9.7805 13.6267
C  14.0977 10.3785 12.8017
C   9.6817  9.3655 11.8017
C   8.6457 10.2915 12.2557
C  12.6827 15.3165  9.8237
C  13.8807 14.6075 10.2707
C   8.0527 13.6055 10.7727
C   8.6247 12.8465  9.6617
C  14.7497 13.9925 12.6007
C  14.1697 13.8375 13.9337
C  14.7607 12.2765 10.6747
C  14.2327 13.3005  9.7337
C  13.2597 12.6175  8.8827
C  10.7847 12.5205  8.3987
C   9.6687 13.4095  8.8167
C  10.2767 14.6765  9.2207
C  10.7727 11.0795  8.7487
C  12.0317 10.3815  9.1217
C  11.6937  9.4775 10.2207
C  14.2127 10.9445 10.3057
C  13.2477 11.1765  9.2327
C   9.6437 10.4995  9.5237
C  10.2327  9.5495 10.4657
C  12.0567 13.2915  8.4147
C  11.7377 14.6045  8.9747
C  32.4627 12.4795 16.2847
C  33.7337 11.7075 16.3027
C  33.4547 10.4355 15.6387
C  36.5807 12.8595 14.2987
C  35.9937 11.7795 15.1337
C  34.9647 12.4075 15.9617
C  31.3777 11.6235 15.7357
C  32.0137 10.3835 15.2917
C  32.4717 13.9405 16.0287
C  33.7517 14.6575 15.7867
C  33.4867 15.6325 14.7287
C  34.0057  9.1385 13.5447
C  34.4557  9.7775 14.8097
C  35.6797 10.5105 14.4907
C  36.0077 14.1665 14.7157
C  34.9737 13.8685 15.7057
C  31.3967 14.5725 15.2197
C  32.0457 15.5805 14.3827
C  35.0287  9.3675 12.4897
C  36.0307 10.2595 13.0717
C  32.5647  9.0875 13.1977
C  31.5457  9.6725 14.1097
C  30.5537 10.3265 13.2577
C  34.0487 16.1335 12.3207
C  34.4937 15.9575 13.7277
C  35.7087 15.1455 13.6797
C  32.6077 16.0825 11.9737
C  32.1567 15.4435 10.7087
C  30.9327 14.7105 11.0277
C  29.6807 12.6115 12.6387
C  29.9117 13.9475 13.2497
C  30.4017 13.7045 14.6057
C  36.9317 12.6095 12.8797
C  36.7157 13.6615 11.8507
C  36.2207 12.9775 10.6567
C  31.5837 15.8535 13.0277
C  30.5817 14.9615 12.4467
C  35.0667 15.5485 11.4087
C  36.0587 14.8955 12.2607
C  32.1187  9.2635 11.7897
C  30.9037 10.0755 11.8387
C  36.7007 11.2735 12.2687
C  36.2117 11.5165 10.9127
C  29.8967 11.5595 13.6677
C  30.3927 12.2435 14.8617
C  30.0317 12.3615 11.2197
C  30.6047 11.0545 10.8017
C  31.6387 11.3525  9.8127
C  34.1407 11.2805  9.4887
C  35.2157 10.6485 10.2987
C  34.5667  9.6405 11.1357
C  34.1497 12.7415  9.2337
C  32.8787 13.5135  9.2157
C  33.1577 14.7855  9.8797
C  30.6187 13.4425 10.3837
C  31.6477 12.8135  9.5567
C  35.2347 13.5975  9.7827
C  34.5987 14.8375 10.2257
C  32.8607 10.5635  9.7317
C  33.1257  9.5885 10.7887
C  11.9777 28.0835 15.4007
C  10.7227 28.7775 15.0087
C  11.0707 29.6715 13.9047
C   8.0077 26.8695 13.4477
C   8.5527 28.2045 13.8087
C   9.5077 27.9825 14.8937
C  13.1137 28.6555 14.6307
C  12.5337 29.5965 13.6737
C  11.9617 26.6455 15.7637
C  10.6897 25.8745 15.7427
C  11.0137 24.5565 15.1987
C  10.6967 29.9915 11.4297
C  10.1447 29.9195 12.8087
C   8.9337 29.1045 12.7287
C   8.5257 25.8545 14.4037
C   9.4917 26.5455 15.2577
C  13.0817 25.7525 15.3647
C  12.4767 24.4815 14.9667
C   9.7487 29.3375 10.4887
C   8.6917 28.7485 11.3097
C  12.1597 29.9165 11.1987
C  13.0987 29.7685 12.3427
C  14.1387 28.8375 11.9067
C  10.6187 23.1075 13.1707
C  10.0757 23.8375 14.3467
C   8.8827 24.5425 13.8817
C  12.0827 23.0325 12.9397
C  12.6347 23.1045 11.5607
C  13.8447 23.9195 11.6407
C  15.0137 26.5105 12.3407
C  14.7157 25.5375 13.4257
C  14.1337 26.3075 14.5247
C   7.7657 26.5135 12.0287
C   8.0367 25.1355 11.5377
C   8.6287 25.2785 10.2087
C  13.0307 23.6865 13.8797
C  14.0877 24.2755 13.0597
C   9.6797 23.2555 12.0267
C   8.6397 24.1865 12.4627
C  12.7027 29.1865 10.0227
C  13.8967 28.4815 10.4877
C   8.0627 27.4855 10.9437
C   8.6457 26.7165  9.8447
C  14.7417 27.8885 12.8317
C  14.1497 27.7455 14.1607
C  14.7707 26.1545 10.9217
C  14.2527 27.1695  9.9657
C  13.2877 26.4785  9.1117
C  10.8177 26.3785  8.6057
C   9.6977 27.2715  9.0047
C  10.3027 28.5415  9.4017
C  10.8007 24.9405  8.9687
C  12.0567 24.2465  9.3607
C  11.7077 23.3525 10.4637
C  14.2267 24.8195 10.5607
C  13.2717 25.0405  9.4757
C   9.6647 24.3685  9.7387
C  10.2447 23.4275 10.6957
C  12.0887 27.1495  8.6267
C  11.7657 28.4675  9.1707
C  32.6407 26.5475 15.9727
C  33.9117 25.7765 15.9657
C  33.6017 24.4735 15.3777
C  36.6567 26.8275 13.7727
C  36.1117 25.7885 14.6857
C  35.1237 26.4575 15.5317
C  31.5317 25.6675 15.5187
C  32.1457 24.4075 15.1037
C  32.6357 27.9945 15.6477
C  33.9017 28.6975 15.3087
C  33.5837 29.6215 14.2207
C  34.0507 23.0785 13.3227
C  34.5617 23.7755 14.5327
C  35.7687 24.4915 14.1197
C  36.1037 28.1535 14.1547
C  35.1187 27.9045 15.2067
C  31.5207 28.5895 14.8617
C  32.1277 29.5545 13.9477
C  35.0217 23.2555 12.2107
C  36.0497 24.1725 12.6997
C  32.5947 23.0115 13.0497
C  31.6217 23.6415 13.9817
C  30.5877 24.2545 13.1487
C  34.0267 30.0065 11.7657
C  34.5407 29.8975 13.1567
C  35.7527 29.0825 13.0887
C  32.5707 29.9405 11.4927
C  32.0597 29.2425 10.2827
C  30.8527 28.5275 10.6957
C  29.6837 26.5095 12.4647
C  29.9427 27.8725 12.9987
C  30.4977 27.6935 14.3397
C  36.9377 26.5095 12.3517
C  36.6707 27.5115 11.2857
C  36.1187 26.7715 10.1507
C  31.6007 29.7635 12.6057
C  30.5717 28.8455 12.1167
C  34.9997 29.3765 10.8347
C  36.0337 28.7635 11.6677
C  32.0807 23.1215 11.6587
C  30.8697 23.9365 11.7277
C  36.6787 25.1455 11.8167
C  36.1237 25.3245 10.4767
C  29.9507 25.5075 13.5307
C  30.5037 26.2465 14.6647
C  29.9647 26.1905 11.0437
C  30.5187 24.8645 10.6617
C  31.5027 25.1135  9.6097
C  33.9867 25.0235  9.1687
C  35.1007 24.4295  9.9537
C  34.4937 23.4635 10.8687
C  33.9817 26.4705  8.8437
C  32.7107 27.2425  8.8507
C  33.0197 28.5445  9.4387
C  30.5107 27.2295 10.1297
C  31.4977 26.5605  9.2847
C  35.0907 27.3505  9.2967
C  34.4757 28.6115  9.7117
C  32.7207 24.3205  9.5067
C  33.0377 23.3965 10.5957
Au  1.4420  0.8320  0.0000
Au  4.3260  0.8320  0.0000
Au  7.2090  0.8320  0.0000
Au 10.0930  0.8320  0.0000
Au 12.9770  0.8320  0.0000
Au 15.8610  0.8320  0.0000
Au 18.7440  0.8320  0.0000
Au 21.6280  0.8320  0.0000
Au 24.5120  0.8320  0.0000
Au 27.3960  0.8320  0.0000
Au 30.2790  0.8320  0.0000
Au 33.1630  0.8320  0.0000
Au 36.0470  0.8320  0.0000
Au 38.9310  0.8320  0.0000
Au 41.8140  0.8320  0.0000
Au 44.6980  0.8320  0.0000
Au  0.0000  3.3300  0.0000
Au  2.8840  3.3300  0.0000
Au  5.7680  3.3300  0.0000
Au  8.6510  3.3300  0.0000
Au 11.5350  3.3300  0.0000
Au 14.4190  3.3300  0.0000
Au 17.3030  3.3300  0.0000
Au 20.1860  3.3300  0.0000
Au 23.0700  3.3300  0.0000
Au 25.9540  3.3300  0.0000
Au 28.8380  3.3300  0.0000
Au 31.7210  3.3300  0.0000
Au 34.6050  3.3300  0.0000
Au 37.4890  3.3300  0.0000
Au 40.3730  3.3300  0.0000
Au 43.2560  3.3300  0.0000
Au  1.4420  5.8270  0.0000
Au  4.3260  5.8270  0.0000
Au  7.2090  5.8270  0.0000
Au 10.0930  5.8270  0.0000
Au 12.9770  5.8270  0.0000
Au 15.8610  5.8270  0.0000
Au 18.7440  5.8270  0.0000
Au 21.6280  5.8270  0.0000
Au 24.5120  5.8270  0.0000
Au 27.3960  5.8270  0.0000
Au 30.2790  5.8270  0.0000
Au 33.1630  5.8270  0.0000
Au 36.0470  5.8270  0.0000
Au 38.9310  5.8270  0.0000
Au 41.8140  5.8270  0.0000
Au 44.6980  5.8270  0.0000
Au  0.0000  8.3250  0.0000
Au  2.8840  8.3250  0.0000
Au  5.7680  8.3250  0.0000
Au  8.6510  8.3250  0.0000
Au 11.5350  8.3250  0.0000
Au 14.4190  8.3250  0.0000
Au 17.3030  8.3250  0.0000
Au 20.1860  8.3250  0.0000
Au 23.0700  8.3250  0.0000
Au 25.9540  8.3250  0.0000
Au 28.8380  8.3250  0.0000
Au 31.7210  8.3250  0.0000
Au 34.6050  8.3250  0.0000
Au 37.4890  8.3250  0.0000
Au 40.3730  8.3250  0.0000
Au 43.2560  8.3250  0.0000
Au  1.4420 10.8220  0.0000
Au  4.3260 10.8220  0.0000
Au  7.2090 10.8220  0.0000
Au 10.0930 10.8220  0.0000
Au 12.9770 10.8220  0.0000
Au 15.8610 10.8220  0.0000
Au 18.7440 10.8220  0.0000
Au 21.6280 10.8220  0.0000
Au 24.5120 10.8220  0.0000
Au 27.3960 10.8220  0.0000
Au 30.2790 10.8220  0.0000
Au 33.1630 10.8220  0.0000
Au 36.0470 10.8220  0.0000
Au 38.9310 10.8220  0.0000
Au 41.8140 10.8220  0.0000
Au 44.6980 10.8220  0.0000
Au  0.0000 13.3200  0.0000
Au  2.8840 13.3200  0.0000
Au  5.7680 13.3200  0.0000
Au  8.6510 13.3200  0.0000
Au 11.5350 13.3200  0.0000
Au 14.4190 13.3200  0.0000
Au 17.3030 13.3200  0.0000
Au 20.1860 13.3200  0.0000
Au 23.0700 13.3200  0.0000
Au 25.9540 13.3200  0.0000
Au 28.8380 13.3200  0.0000
Au 31.7210 13.3200  0.0000
Au 34.6050 13.3200  0.0000
Au 37.4890 13.3200  0.0000
Au 40.3730 13.3200  0.0000
Au 43.2560 13.3200  0.0000
Au  1.4420 15.8170  0.0000
Au  4.3260 15.8170  0.0000
Au  7.2090 15.8170  0.0000
Au 10.0930 15.8170  0.0000
Au 12.9770 15.8170  0.0000
Au 15.8610 15.8170  0.0000
Au 18.7440 15.8170  0.0000
Au 21.6280 15.8170  0.0000
Au 24.5120 15.8170  0.0000
Au 27.3960 15.8170  0.0000
Au 30.2790 15.8170  0.0000
Au 33.1630 15.8170  0.0000
Au 36.0470 15.8170  0.0000
Au 38.9310 15.8170  0.0000
Au 41.8140 15.8170  0.0000
Au 44.6980 15.8170  0.0000
Au  0.0000 18.3140  0.0000
Au  2.8840 18.3140  0.0000
Au  5.7680 18.3140  0.0000
Au  8.6510 18.3140  0.0000
Au 11.5350 18.3140  0.0000
Au 14.4190 18.3140  0.0000
Au 17.3030 18.3140  0.0000
Au 20.1860 18.3140  0.0000
Au 23.0700 18.3140  0.0000
Au 25.9540 18.3140  0.0000
Au 28.8380 18.3140  0.0000
Au 31.7210 18.3140  0.0000
Au 34.6050 18.3140  0.0000
Au 37.4890 18.3140  0.0000
Au 40.3730 18.3140  0.0000
Au 43.2560 18.3140  0.0000
Au  1.4420 20.8120  0.0000
Au  4.3260 20.8120  0.0000
Au  7.2090 20.8120  0.0000
Au 10.0930 20.8120  0.0000
Au 12.9770 20.8120  0.0000
Au 15.8610 20.8120  0.0000
Au 18.7440 20.8120  0.0000
Au 21.6280 20.8120  0.0000
Au 24.5120 20.8120  0.0000
Au 27.3960 20.8120  0.0000
Au 30.2790 20.8120  0.0000
Au 33.1630 20.8120  0.0000
Au 36.0470 20.8120  0.0000
Au 38.9310 20.8120  0.0000
Au 41.8140 20.8120  0.0000
Au 44.6980 20.8120  0.0000
Au  0.0000 23.3090  0.0000
Au  2.8840 23.3090  0.0000
Au  5.7680 23.3090  0.0000
Au  8.6510 23.3090  0.0000
Au 11.5350 23.3090  0.0000
Au 14.4190 23.3090  0.0000
Au 17.3030 23.3090  0.0000
Au 20.1860 23.3090  0.0000
Au 23.0700 23.3090  0.0000
Au 25.9540 23.3090  0.0000
Au 28.8380 23.3090  0.0000
Au 31.7210 23.3090  0.0000
Au 34.6050 23.3090  0.0000
Au 37.4890 23.3090  0.0000
Au 40.3730 23.3090  0.0000
Au 43.2560 23.3090  0.0000
Au  1.4420 25.8070  0.0000
Au  4.3260 25.8070  0.0000
Au  7.2090 25.8070  0.0000
Au 10.0930 25.8070  0.0000
Au 12.9770 25.8070  0.0000
Au 15.8610 25.8070  0.0000
Au 18.7440 25.8070  0.0000
Au 21.6280 25.8070  0.0000
Au 24.5120 25.8070  0.0000
Au 27.3960 25.8070  0.0000
Au 30.2790 25.8070  0.0000
Au 33.1630 25.8070  0.0000
Au 36.0470 25.8070  0.0000
Au 38.9310 25.8070  0.0000
Au 41.8140 25.8070  0.0000
Au 44.6980 25.8070  0.0000
Au  0.0000 28.3040  0.0000
Au  2.8840 28.3040  0.0000
Au  5.7680 28.3040  0.0000
Au  8.6510 28.3040  0.0000
Au 11.5350 28.3040  0.0000
Au 14.4190 28.3040  0.0000
Au 17.3030 28.3040  0.0000
Au 20.1860 28.3040  0.0000
Au 23.0700 28.3040  0.0000
Au 25.9540 28.3040  0.0000
Au 28.8380 28.3040  0.0000
Au 31.7210 28.3040  0.0000
Au 34.6050 28.3040  0.0000
Au 37.4890 28.3040  0.0000
Au 40.3730 28.3040  0.0000
Au 43.2560 28.3040  0.0000
Au  1.4420 30.8010  0.0000
Au  4.3260 30.8010  0.0000
Au  7.2090 30.8010  0.0000
Au 10.0930 30.8010  0.0000
Au 12.9770 30.8010  0.0000
Au 15.8610 30.8010  0.0000
Au 18.7440 30.8010  0.0000
Au 21.6280 30.8010  0.0000
Au 24.5120 30.8010  0.0000
Au 27.3960 30.8010  0.0000
Au 30.2790 30.8010  0.0000
Au 33.1630 30.8010  0.0000
Au 36.0470 30.8010  0.0000
Au 38.9310 30.8010  0.0000
Au 41.8140 30.8010  0.0000
Au 44.6980 30.8010  0.0000
Au  0.0000 33.2990  0.0000
Au  2.8840 33.2990  0.0000
Au  5.7680 33.2990  0.0000
Au  8.6510 33.2990  0.0000
Au 11.5350 33.2990  0.0000
Au 14.4190 33.2990  0.0000
Au 17.3030 33.2990  0.0000
Au 20.1860 33.2990  0.0000
Au 23.0700 33.2990  0.0000
Au 25.9540 33.2990  0.0000
Au 28.8380 33.2990  0.0000
Au 31.7210 33.2990  0.0000
Au 34.6050 33.2990  0.0000
Au 37.4890 33.2990  0.0000
Au 40.3730 33.2990  0.0000
Au 43.2560 33.2990  0.0000
Au  1.4420 35.7960  0.0000
Au  4.3260 35.7960  0.0000
Au  7.2090 35.7960  0.0000
Au 10.0930 35.7960  0.0000
Au 12.9770 35.7960  0.0000
Au 15.8610 35.7960  0.0000
Au 18.7440 35.7960  0.0000
Au 21.6280 35.7960  0.0000
Au 24.5120 35.7960  0.0000
Au 27.3960 35.7960  0.0000
Au 30.2790 35.7960  0.0000
Au 33.1630 35.7960  0.0000
Au 36.0470 35.7960  0.0000
Au 38.9310 35.7960  0.0000
Au 41.8140 35.7960  0.0000
Au 44.6980 35.7960  0.0000
Au  0.0000 38.2940  0.0000
Au  2.8840 38.2940  0.0000
Au  5.7680 38.2940  0.0000
Au  8.6510 38.2940  0.0000
Au 11.5350 38.2940  0.0000
Au 14.4190 38.2940  0.0000
Au 17.3030 38.2940  0.0000
Au 20.1860 38.2940  0.0000
Au 23.0700 38.2940  0.0000
Au 25.9540 38.2940  0.0000
Au 28.8380 38.2940  0.0000
Au 31.7210 38.2940  0.0000
Au 34.6050 38.2940  0.0000
Au 37.4890 38.2940  0.0000
Au 40.3730 38.2940  0.0000
Au 43.2560 38.2940  0.0000
Au  0.0000  1.6650  2.3550
Au  2.8840  1.6650  2.3550
Au  5.7680  1.6650  2.3550
Au  8.6510  1.6650  2.3550
Au 11.5350  1.6650  2.3550
Au 14.4190  1.6650  2.3550
Au 17.3030  1.6650  2.3550
Au 20.1860  1.6650  2.3550
Au 23.0700  1.6650  2.3550
Au 25.9540  1.6650  2.3550
Au 28.8380  1.6650  2.3550
Au 31.7210  1.6650  2.3550
Au 34.6050  1.6650  2.3550
Au 37.4890  1.6650  2.3550
Au 40.3730  1.6650  2.3550
Au 43.2560  1.6650  2.3550
Au  1.4420  4.1620  2.3550
Au  4.3260  4.1620  2.3550
Au  7.2090  4.1620  2.3550
Au 10.0930  4.1620  2.3550
Au 12.9770  4.1620  2.3550
Au 15.8610  4.1620  2.3550
Au 18.7440  4.1620  2.3550
Au 21.6280  4.1620  2.3550
Au 24.5120  4.1620  2.3550
Au 27.3960  4.1620  2.3550
Au 30.2790  4.1620  2.3550
Au 33.1630  4.1620  2.3550
Au 36.0470  4.1620  2.3550
Au 38.9310  4.1620  2.3550
Au 41.8140  4.1620  2.3550
Au 44.6980  4.1620  2.3550
Au  0.0000  6.6600  2.3550
Au  2.8840  6.6600  2.3550
Au  5.7680  6.6600  2.3550
Au  8.6510  6.6600  2.3550
Au 11.5350  6.6600  2.3550
Au 14.4190  6.6600  2.3550
Au 17.3030  6.6600  2.3550
Au 20.1860  6.6600  2.3550
Au 23.0700  6.6600  2.3550
Au 25.9540  6.6600  2.3550
Au 28.8380  6.6600  2.3550
Au 31.7210  6.6600  2.3550
Au 34.6050  6.6600  2.3550
Au 37.4890  6.6600  2.3550
Au 40.3730  6.6600  2.3550
Au 43.2560  6.6600  2.3550
Au  1.4420  9.1570  2.3550
Au  4.3260  9.1570  2.3550
Au  7.2090  9.1570  2.3550
Au 10.0930  9.1570  2.3550
Au 12.9770  9.1570  2.3550
Au 15.8610  9.1570  2.3550
Au 18.7440  9.1570  2.3550
Au 21.6280  9.1570  2.3550
Au 24.5120  9.1570  2.3550
Au 27.3960  9.1570  2.3550
Au 30.2790  9.1570  2.3550
Au 33.1630  9.1570  2.3550
Au 36.0470  9.1570  2.3550
Au 38.9310  9.1570  2.3550
Au 41.8140  9.1570  2.3550
Au 44.6980  9.1570  2.3550
Au  0.0000 11.6550  2.3550
Au  2.8840 11.6550  2.3550
Au  5.7680 11.6550  2.3550
Au  8.6510 11.6550  2.3550
Au 11.5350 11.6550  2.3550
Au 14.4190 11.6550  2.3550
Au 17.3030 11.6550  2.3550
Au 20.1860 11.6550  2.3550
Au 23.0700 11.6550  2.3550
Au 25.9540 11.6550  2.3550
Au 28.8380 11.6550  2.3550
Au 31.7210 11.6550  2.3550
Au 34.6050 11.6550  2.3550
Au 37.4890 11.6550  2.3550
Au 40.3730 11.6550  2.3550
Au 43.2560 11.6550  2.3550
Au  1.4420 14.1520  2.3550
Au  4.3260 14.1520  2.3550
Au  7.2090 14.1520  2.3550
Au 10.0930 14.1520  2.3550
Au 12.9770 14.1520  2.3550
Au 15.8610 14.1520  2.3550
Au 18.7440 14.1520  2.3550
Au 21.6280 14.1520  2.3550
Au 24.5120 14.1520  2.3550
Au 27.3960 14.1520  2.3550
Au 30.2790 14.1520  2.3550
Au 33.1630 14.1520  2.3550
Au 36.0470 14.1520  2.3550
Au 38.9310 14.1520  2.3550
Au 41.8140 14.1520  2.3550
Au 44.6980 14.1520  2.3550
Au  0.0000 16.6490  2.3550
Au  2.8840 16.6490  2.3550
Au  5.7680 16.6490  2.3550
Au  8.6510 16.6490  2.3550
Au 11.5350 16.6490  2.3550
Au 14.4190 16.6490  2.3550
Au 17.3030 16.6490  2.3550
Au 20.1860 16.6490  2.3550
Au 23.0700 16.6490  2.3550
Au 25.9540 16.6490  2.3550
Au 28.8380 16.6490  2.3550
Au 31.7210 16.6490  2.3550
Au 34.6050 16.6490  2.3550
Au 37.4890 16.6490  2.3550
Au 40.3730 16.6490  2.3550
Au 43.2560 16.6490  2.3550
Au  1.4420 19.1470  2.3550
Au  4.3260 19.1470  2.3550
Au  7.2090 19.1470  2.3550
Au 10.0930 19.1470  2.3550
Au 12.9770 19.1470  2.3550
Au 15.8610 19.1470  2.3550
Au 18.7440 19.1470  2.3550
Au 21.6280 19.1470  2.3550
Au 24.5120 19.1470  2.3550
Au 27.3960 19.1470  2.3550
Au 30.2790 19.1470  2.3550
Au 33.1630 19.1470  2.3550
Au 36.0470 19.1470  2.3550
Au 38.9310 19.1470  2.3550
Au 41.8140 19.1470  2.3550
Au 44.6980 19.1470  2.3550
Au  0.0000 21.6440  2.3550
Au  2.8840 21.6440  2.3550
Au  5.7680 21.6440  2.3550
Au  8.6510 21.6440  2.3550
Au 11.5350 21.6440  2.3550
Au 14.4190 21.6440  2.3550
Au 17.3030 21.6440  2.3550
Au 20.1860 21.6440  2.3550
Au 23.0700 21.6440  2.3550
Au 25.9540 21.6440  2.3550
Au 28.8380 21.6440  2.3550
Au 31.7210 21.6440  2.3550
Au 34.6050 21.6440  2.3550
Au 37.4890 21.6440  2.3550
Au 40.3730 21.6440  2.3550
Au 43.2560 21.6440  2.3550
Au  1.4420 24.1420  2.3550
Au  4.3260 24.1420  2.3550
Au  7.2090 24.1420  2.3550
Au 10.0930 24.1420  2.3550
Au 12.9770 24.1420  2.3550
Au 15.8610 24.1420  2.3550
Au 18.7440 24.1420  2.3550
Au 21.6280 24.1420  2.3550
Au 24.5120 24.1420  2.3550
Au 27.3960 24.1420  2.3550
Au 30.2790 24.1420  2.3550
Au 33.1630 24.1420  2.3550
Au 36.0470 24.1420  2.3550
Au 38.9310 24.1420  2.3550
Au 41.8140 24.1420  2.3550
Au 44.6980 24.1420  2.3550
Au  0.0000 26.6390  2.3550
Au  2.8840 26.6390  2.3550
Au  5.7680 26.6390  2.3550
Au  8.6510 26.6390  2.3550
Au 11.5350 26.6390  2.3550
Au 14.4190 26.6390  2.3550
Au 17.3030 26.6390  2.3550
Au 20.1860 26.6390  2.3550
Au 23.0700 26.6390  2.3550
Au 25.9540 26.6390  2.3550
Au 28.8380 26.6390  2.3550
Au 31.7210 26.6390  2.3550
Au 34.6050 26.6390  2.3550
Au 37.4890 26.6390  2.3550
Au 40.3730 26.6390  2.3550
Au 43.2560 26.6390  2.3550
Au  1.4420 29.1360  2.3550
Au  4.3260 29.1360  2.3550
Au  7.2090 29.1360  2.3550
Au 10.0930 29.1360  2.3550
Au 12.9770 29.1360  2.3550
Au 15.8610 29.1360  2.3550
Au 18.7440 29.1360  2.3550
Au 21.6280 29.1360  2.3550
Au 24.5120 29.1360  2.3550
Au 27.3960 29.1360  2.3550
Au 30.2790 29.1360  2.3550
Au 33.1630 29.1360  2.3550
Au 36.0470 29.1360  2.3550
Au 38.9310 29.1360  2.3550
Au 41.8140 29.1360  2.3550
Au 44.6980 29.1360  2.3550
Au  0.0000 31.6340  2.3550
Au  2.8840 31.6340  2.3550
Au  5.7680 31.6340  2.3550
Au  8.6510 31.6340  2.3550
Au 11.5350 31.6340  2.3550
Au 14.4190 31.6340  2.3550
Au 17.3030 31.6340  2.3550
Au 20.1860 31.6340  2.3550
Au 23.0700 31.6340  2.3550
Au 25.9540 31.6340  2.3550
Au 28.8380 31.6340  2.3550
Au 31.7210 31.6340  2.3550
Au 34.6050 31.6340  2.3550
Au 37.4890 31.6340  2.3550
Au 40.3730 31.6340  2.3550
Au 43.2560 31.6340  2.3550
Au  1.4420 34.1310  2.3550
Au  4.3260 34.1310  2.3550
Au  7.2090 34.1310  2.3550
Au 10.0930 34.1310  2.3550
Au 12.9770 34.1310  2.3550
Au 15.8610 34.1310  2.3550
Au 18.7440 34.1310  2.3550
Au 21.6280 34.1310  2.3550
Au 24.5120 34.1310  2.3550
Au 27.3960 34.1310  2.3550
Au 30.2790 34.1310  2.3550
Au 33.1630 34.1310  2.3550
Au 36.0470 34.1310  2.3550
Au 38.9310 34.1310  2.3550
Au 41.8140 34.1310  2.3550
Au 44.6980 34.1310  2.3550
Au  0.0000 36.6290  2.3550
Au  2.8840 36.6290  2.3550
Au  5.7680 36.6290  2.3550
Au  8.6510 36.6290  2.3550
Au 11.5350 36.6290  2.3550
Au 14.4190 36.6290  2.3550
Au 17.3030 36.6290  2.3550
Au 20.1860 36.6290  2.3550
Au 23.0700 36.6290  2.3550
Au 25.9540 36.6290  2.3550
Au 28.8380 36.6290  2.3550
Au 31.7210 36.6290  2.3550
Au 34.6050 36.6290  2.3550
Au 37.4890 36.6290  2.3550
Au 40.3730 36.6290  2.3550
Au 43.2560 36.6290  2.3550
Au  1.4420 39.1260  2.3550
Au  4.3260 39.1260  2.3550
Au  7.2090 39.1260  2.3550
Au 10.0930 39.1260  2.3550
Au 12.9770 39.1260  2.3550
Au 15.8610 39.1260  2.3550
Au 18.7440 39.1260  2.3550
Au 21.6280 39.1260  2.3550
Au 24.5120 39.1260  2.3550
Au 27.3960 39.1260  2.3550
Au 30.2790 39.1260  2.3550
Au 33.1630 39.1260  2.3550
Au 36.0470 39.1260  2.3550
Au 38.9310 39.1260  2.3550
Au 41.8140 39.1260  2.3550
Au 44.6980 39.1260  2.3550
Au  0.0000  0.0000  4.7090
Au  2.8840  0.0000  4.7090
Au  5.7680  0.0000  4.7090
Au  8.6510  0.0000  4.7090
Au 11.5350  0.0000  4.7090
Au 14.4190  0.0000  4.7090
Au 17.3030  0.0000  4.7090
Au 20.1860  0.0000  4.7090
Au 23.0700  0.0000  4.7090
Au 25.9540  0.0000  4.7090
Au 28.8380  0.0000  4.7090
Au 31.7210  0.0000  4.7090
Au 34.6050  0.0000  4.7090
Au 37.4890  0.0000  4.7090
Au 40.3730  0.0000  4.7090
Au 43.2560  0.0000  4.7090
Au  1.4420  2.4970  4.7090
Au  4.3260  2.4970  4.7090
Au  7.2090  2.4970  4.7090
Au 10.0930  2.4970  4.7090
Au 12.9770  2.4970  4.7090
Au 15.8610  2.4970  4.7090
Au 18.7440  2.4970  4.7090
Au 21.6280  2.4970  4.7090
Au 24.5120  2.4970  4.7090
Au 27.3960  2.4970  4.7090
Au 30.2790  2.4970  4.7090
Au 33.1630  2.4970  4.7090
Au 36.0470  2.4970  4.7090
Au 38.9310  2.4970  4.7090
Au 41.8140  2.4970  4.7090
Au 44.6980  2.4970  4.7090
Au  0.0000  4.9950  4.7090
Au  2.8840  4.9950  4.7090
Au  5.7680  4.9950  4.7090
Au  8.6510  4.9950  4.7090
Au 11.5350  4.9950  4.7090
Au 14.4190  4.9950  4.7090
Au 17.3030  4.9950  4.7090
Au 20.1860  4.9950  4.7090
Au 23.0700  4.9950  4.7090
Au 25.9540  4.9950  4.7090
Au 28.8380  4.9950  4.7090
Au 31.7210  4.9950  4.7090
Au 34.6050  4.9950  4.7090
Au 37.4890  4.9950  4.7090
Au 40.3730  4.9950  4.7090
Au 43.2560  4.9950  4.7090
Au  1.4420  7.4920  4.7090
Au  4.3260  7.4920  4.7090
Au  7.2090  7.4920  4.7090
Au 10.0930  7.4920  4.7090
Au 12.9770  7.4920  4.7090
Au 15.8610  7.4920  4.7090
Au 18.7440  7.4920  4.7090
Au 21.6280  7.4920  4.7090
Au 24.5120  7.4920  4.7090
Au 27.3960  7.4920  4.7090
Au 30.2790  7.4920  4.7090
Au 33.1630  7.4920  4.7090
Au 36.0470  7.4920  4.7090
Au 38.9310  7.4920  4.7090
Au 41.8140  7.4920  4.7090
Au 44.6980  7.4920  4.7090
Au  0.0000  9.9900  4.7090
Au  2.8840  9.9900  4.7090
Au  5.7680  9.9900  4.7090
Au  8.6510  9.9900  4.7090
Au 11.5350  9.9900  4.7090
Au 14.4190  9.9900  4.7090
Au 17.3030  9.9900  4.7090
Au 20.1860  9.9900  4.7090
Au 23.0700  9.9900  4.7090
Au 25.9540  9.9900  4.7090
Au 28.8380  9.9900  4.7090
Au 31.7210  9.9900  4.7090
Au 34.6050  9.9900  4.7090
Au 37.4890  9.9900  4.7090
Au 40.3730  9.9900  4.7090
Au 43.2560  9.9900  4.7090
Au  1.4420 12.4870  4.7090
Au  4.3260 12.4870  4.7090
Au  7.2090 12.4870  4.7090
Au 10.0930 12.4870  4.7090
Au 12.9770 12.4870  4.7090
Au 15.8610 12.4870  4.7090
Au 18.7440 12.4870  4.7090
Au 21.6280 12.4870  4.7090
Au 24.5120 12.4870  4.7090
Au 27.3960 12.4870  4.7090
Au 30.2790 12.4870  4.7090
Au 33.1630 12.4870  4.7090
Au 36.0470 12.4870  4.7090
Au 38.9310 12.4870  4.7090
Au 41.8140 12.4870  4.7090
Au 44.6980 12.4870  4.7090
Au  0.0000 14.9840  4.7090
Au  2.8840 14.9840  4.7090
Au  5.7680 14.9840  4.7090
Au  8.6510 14.9840  4.7090
Au 11.5350 14.9840  4.7090
Au 14.4190 14.9840  4.7090
Au 17.3030 14.9840  4.7090
Au 20.1860 14.9840  4.7090
Au 23.0700 14.9840  4.7090
Au 25.9540 14.9840  4.7090
Au 28.8380 14.9840  4.7090
Au 31.7210 14.9840  4.7090
Au 34.6050 14.9840  4.7090
Au 37.4890 14.9840  4.7090
Au 40.3730 14.9840  4.7090
Au 43.2560 14.9840  4.7090
Au  1.4420 17.4820  4.7090
Au  4.3260 17.4820  4.7090
Au  7.2090 17.4820  4.7090
Au 10.0930 17.4820  4.7090
Au 12.9770 17.4820  4.7090
Au 15.8610 17.4820  4.7090
Au 18.7440 17.4820  4.7090
Au 21.6280 17.4820  4.7090
Au 24.5120 17.4820  4.7090
Au 27.3960 17.4820  4.7090
Au 30.2790 17.4820  4.7090
Au 33.1630 17.4820  4.7090
Au 36.0470 17.4820  4.7090
Au 38.9310 17.4820  4.7090
Au 41.8140 17.4820  4.7090
Au 44.6980 17.4820  4.7090
Au  0.0000 19.9790  4.7090
Au  2.8840 19.9790  4.7090
Au  5.7680 19.9790  4.7090
Au  8.6510 19.9790  4.7090
Au 11.5350 19.9790  4.7090
Au 14.4190 19.9790  4.7090
Au 17.3030 19.9790  4.7090
Au 20.1860 19.9790  4.7090
Au 23.0700 19.9790  4.7090
Au 25.9540 19.9790  4.7090
Au 28.8380 19.9790  4.7090
Au 31.7210 19.9790  4.7090
Au 34.6050 19.9790  4.7090
Au 37.4890 19.9790  4.7090
Au 40.3730 19.9790  4.7090
Au 43.2560 19.9790  4.7090
Au  1.4420 22.4770  4.7090
Au  4.3260 22.4770  4.7090
Au  7.2090 22.4770  4.7090
Au 10.0930 22.4770  4.7090
Au 12.9770 22.4770  4.7090
Au 15.8610 22.4770  4.7090
Au 18.7440 22.4770  4.7090
Au 21.6280 22.4770  4.7090
Au 24.5120 22.4770  4.7090
Au 27.3960 22.4770  4.7090
Au 30.2790 22.4770  4.7090
Au 33.1630 22.4770  4.7090
Au 36.0470 22.4770  4.7090
Au 38.9310 22.4770  4.7090
Au 41.8140 22.4770  4.7090
Au 44.6980 22.4770  4.7090
Au  0.0000 24.9740  4.7090
Au  2.8840 24.9740  4.7090
Au  5.7680 24.9740  4.7090
Au  8.6510 24.9740  4.7090
Au 11.5350 24.9740  4.7090
Au 14.4190 24.9740  4.7090
Au 17.3030 24.9740  4.7090
Au 20.1860 24.9740  4.7090
Au 23.0700 24.9740  4.7090
Au 25.9540 24.9740  4.7090
Au 28.8380 24.9740  4.7090
Au 31.7210 24.9740  4.7090
Au 34.6050 24.9740  4.7090
Au 37.4890 24.9740  4.7090
Au 40.3730 24.9740  4.7090
Au 43.2560 24.9740  4.7090
Au  1.4420 27.4710  4.7090
Au  4.3260 27.4710  4.7090
Au  7.2090 27.4710  4.7090
Au 10.0930 27.4710  4.7090
Au 12.9770 27.4710  4.7090
Au 15.8610 27.4710  4.7090
Au 18.7440 27.4710  4.7090
Au 21.6280 27.4710  4.7090
Au 24.5120 27.4710  4.7090
Au 27.3960 27.4710  4.7090
Au 30.2790 27.4710  4.7090
Au 33.1630 27.4710  4.7090
Au 36.0470 27.4710  4.7090
Au 38.9310 27.4710  4.7090
Au 41.8140 27.4710  4.7090
Au 44.6980 27.4710  4.7090
Au  0.0000 29.9690  4.7090
Au  2.8840 29.9690  4.7090
Au  5.7680 29.9690  4.7090
Au  8.6510 29.9690  4.7090
Au 11.5350 29.9690  4.7090
Au 14.4190 29.9690  4.7090
Au 17.3030 29.9690  4.7090
Au 20.1860 29.9690  4.7090
Au 23.0700 29.9690  4.7090
Au 25.9540 29.9690  4.7090
Au 28.8380 29.9690  4.7090
Au 31.7210 29.9690  4.7090
Au 34.6050 29.9690  4.7090
Au 37.4890 29.9690  4.7090
Au 40.3730 29.9690  4.7090
Au 43.2560 29.9690  4.7090
Au  1.4420 32.4660  4.7090
Au  4.3260 32.4660  4.7090
Au  7.2090 32.4660  4.7090
Au 10.0930 32.4660  4.7090
Au 12.9770 32.4660  4.7090
Au 15.8610 32.4660  4.7090
Au 18.7440 32.4660  4.7090
Au 21.6280 32.4660  4.7090
Au 24.5120 32.4660  4.7090
Au 27.3960 32.4660  4.7090
Au 30.2790 32.4660  4.7090
Au 33.1630 32.4660  4.7090
Au 36.0470 32.4660  4.7090
Au 38.9310 32.4660  4.7090
Au 41.8140 32.4660  4.7090
Au 44.6980 32.4660  4.7090
Au  0.0000 34.9640  4.7090
Au  2.8840 34.9640  4.7090
Au  5.7680 34.9640  4.7090
Au  8.6510 34.9640  4.7090
Au 11.5350 34.9640  4.7090
Au 14.4190 34.9640  4.7090
Au 17.3030 34.9640  4.7090
Au 20.1860 34.9640  4.7090
Au 23.0700 34.9640  4.7090
Au 25.9540 34.9640  4.7090
Au 28.8380 34.9640  4.7090
Au 31.7210 34.9640  4.7090
Au 34.6050 34.9640  4.7090
Au 37.4890 34.9640  4.7090
Au 40.3730 34.9640  4.7090
Au 43.2560 34.9640  4.7090
Au  1.4420 37.4610  4.7090
Au  4.3260 37.4610  4.7090
Au  7.2090 37.4610  4.7090
Au 10.0930 37.4610  4.7090
Au 12.9770 37.4610  4.7090
Au 15.8610 37.4610  4.7090
Au 18.7440 37.4610  4.7090
Au 21.6280 37.4610  4.7090
Au 24.5120 37.4610  4.7090
Au 27.3960 37.4610  4.7090
Au 30.2790 37.4610  4.7090
Au 33.1630 37.4610  4.7090
Au 36.0470 37.4610  4.7090
Au 38.9310 37.4610  4.7090
Au 41.8140 37.4610  4.7090
Au 44.6980 37.4610  4.7090
