288

C         27.07709       59.56674      -46.57755
C         29.26898       59.30392      -44.73084
C         25.65517       59.36621      -46.10506
C         28.99610       58.97194      -43.28048
C         25.12675       58.70987      -43.34898
C         26.28008       58.57573      -42.37820
C         28.00209       58.48949      -46.75162
C         29.14128       58.35667      -45.79733
C         25.11143       58.08077      -45.79133
C         28.58822       57.66959      -42.85479
C         24.84208       57.74045      -44.36264
C         27.18331       57.46614      -42.38880
C         27.25882       57.19540      -47.10295
C         29.42076       56.94343      -45.29152
C         25.79669       56.99177      -46.62434
C         29.14657       56.60083      -43.80202
C         25.29784       56.35332      -43.91303
C         26.48252       56.21698      -42.91765
C         28.07981       55.93388      -47.23901
C         29.24085       55.80231      -46.27596
C         25.39744       55.56017      -46.35319
C         28.74578       55.17771      -43.54179
C         25.14191       55.22082      -44.89898
C         27.31969       54.97511      -43.07124
C         27.40286       54.64769      -47.66497
C         29.58713       54.40009      -45.84813
C         25.97706       54.45308      -47.20659
C         29.33784       54.08182      -44.39442
C         25.50745       53.82817      -44.47006
C         26.65761       53.70276      -43.50285
C         28.22749       53.38687      -47.79149
C         29.38890       53.25379      -46.82940
C         25.57188       53.02257      -46.91363
C         28.93156       52.67196      -44.11198
C         25.34852       52.69878      -45.45245
C         27.50595       52.47555      -43.64506
C         27.56319       52.07867      -48.22096
C         29.72906       51.82579      -46.41021
C         26.13571       51.87383      -47.75769
C         29.51439       51.53674      -44.93762
C         25.72081       51.29639      -45.03215
C         26.86664       51.18050      -44.06269
C         28.45789       50.88134      -48.41995
C         29.58019       50.73341      -47.46741
C         25.62420       50.46729      -47.43645
C         29.15580       50.16421      -44.46083
C         25.38870       50.19719      -45.99693
C         27.75841       49.97764      -44.01807
C         20.01916       47.84983      -39.81810
C         19.14188       47.02752      -40.67285
C         19.91383       47.84244      -38.39868
C         21.75652       47.98748      -41.71788
C         20.85325       47.18436      -42.60903
C         21.45222       48.07537      -40.25629
C         18.21476       46.12537      -40.07431
C         23.41507       48.22237      -43.65131
C         22.53924       47.43611      -44.57242
C         23.12451       48.27559      -42.20046
C         19.77104       46.40684      -41.91471
C         24.86102       48.88737      -45.57120
C         24.75798       48.59068      -44.13165
C         21.44395       46.65923      -43.89879
C         23.18818       46.95303      -45.89261
C         21.06597       47.75250      -37.42554
C         37.61455       47.71010      -42.90879
C         22.63378       47.97254      -39.27563
C         38.74408       46.88291      -42.64940
C         37.70185       48.77079      -43.92611
C         35.03384       47.60391      -43.18513
C         18.25330       44.62562      -40.23305
C         24.26888       48.16360      -41.25752
C         36.31929       46.90568      -42.83483
C         35.13973       48.68637      -44.21539
C         32.41778       47.57513      -43.42974
C         19.83076       44.87727      -42.07646
C         25.90339       48.45953      -43.19704
C         38.90331       49.02798      -44.64714
C         33.70340       46.87982      -43.05006
C         32.57527       48.68934      -44.41346
C         29.78989       47.76121      -43.60276
C         22.43571       47.65705      -37.80800
C         36.48728       49.03440      -44.78337
C         21.50922       45.17586      -44.05040
C         31.01340       46.86546      -43.34370
C         30.08406       49.01830      -44.44509
C         33.92049       49.01581      -44.97677
C         24.00781       47.79610      -39.85093
C         23.26043       45.44142      -46.04214
C         31.37602       49.11263      -45.15180
C         25.63586       48.01289      -41.82156
C         19.24742       43.95822      -41.00904
C         38.77208       45.38548      -42.81029
C         28.15844       49.77636      -49.36826
C         27.23071       49.62749      -51.66352
C         27.32335       48.65625      -43.54506
C         26.41461       49.79474      -54.07488
C         25.67621       50.10238      -56.51755
C         20.96042       44.34566      -42.91256
C         36.33584       45.38042      -43.00512
C         26.95977       49.87571      -50.22314
C         26.14167       49.90885      -52.62666
C         29.09775       48.56126      -49.59433
C         25.32583       50.11654      -55.04520
C         28.20645       48.53883      -52.01474
C         24.51541       50.30672      -57.31588
C         33.72330       45.39988      -43.20321
C         22.65325       44.64322      -44.86398
C         27.48417       48.83338      -54.49732
C         26.77614       49.22424      -56.95758
C         31.05939       45.34327      -43.46634
C         39.02800       49.20732      -46.14230
C         24.25952       44.67060      -46.89815
C         36.60011       49.21096      -46.30830
C         28.86169       47.74319      -50.86936
C         28.14910       48.01486      -53.41994
C         27.41721       48.32433      -55.90794
C         37.64609       44.63661      -43.26170
C         26.71031       48.56627      -58.21872
C         34.03936       49.19445      -46.45020
C         35.06578       44.75945      -43.51247
C         31.51395       49.31936      -46.61345
C         23.36468       46.71495      -37.15880
C         32.46550       44.77939      -43.74116
C         25.58768       49.51430      -49.73423
C         24.76067       49.63074      -52.15283
C         23.87825       49.94367      -54.55137
C         24.97850       46.86979      -39.17981
C         23.08686       50.18878      -56.83782
C         29.92404       44.42194      -43.93976
C         37.92571       49.13055      -47.04181
C         26.64180       47.11651      -41.17500
C         20.17323       43.01300      -40.35826
C         35.35422       49.01985      -47.10478
C         28.35657       47.60865      -43.08564
C         22.87413       45.79048      -36.19197
C         21.90807       43.40881      -42.22261
C         32.81085       49.03293      -47.24779
C         25.20696       49.43245      -48.43965
C         24.59199       49.12994      -50.76230
C         30.39073       49.48626      -47.53377
C         23.68065       49.45868      -53.14602
C         24.42892       46.06608      -38.03628
C         23.56756       43.70656      -44.14494
C         22.71117       49.83800      -55.50786
C         28.90005       46.21595      -51.06110
C         28.18245       46.54246      -53.60248
C         27.45304       46.80193      -56.09559
C         26.75537       47.07258      -58.41941
C         20.07174       42.68058      -38.97836
C         26.11337       46.31315      -40.01805
C         25.01300       43.54673      -46.16359
C         21.61278       42.96453      -40.82650
C         27.81245       46.60467      -42.07027
C         37.74908       43.84615      -44.50046
C         35.18744       43.98781      -44.78987
C         23.28486       43.30030      -42.75120
C         32.62033       44.07324      -45.03176
C         24.91860       43.50542      -44.69510
C         29.16371       45.11446      -50.01914
C         28.26568       45.70269      -52.36758
C         27.54567       45.97537      -54.84810
C         26.85823       46.14787      -57.33936
C         30.26070       43.51787      -45.15987
C         22.92386       44.29052      -36.33709
C         37.99284       48.33563      -48.28329
C         38.95741       43.77402      -45.25217
C         24.48543       44.53732      -38.19597
C         35.41122       48.19346      -48.35500
C         21.22283       42.58370      -38.00486
C         36.54266       43.77537      -45.40510
C         32.82067       48.15011      -48.45079
C         26.17282       44.82877      -40.17109
C         22.79276       42.87019      -39.84361
C         33.97598       43.84777      -45.61948
C         23.46589       43.64759      -37.48990
C         24.31387       48.20443      -48.02792
C         23.56170       48.11566      -50.45936
C         30.27106       48.44011      -48.67313
C         22.63645       48.42385      -52.86706
C         22.58602       42.82740      -38.34373
C         21.67670       48.82444      -55.23816
C         27.87700       45.09456      -42.22281
C         31.42877       43.72009      -45.82656
C         24.42897       43.21275      -41.80543
C         39.16059       47.57770      -48.58715
C         25.08029       44.03304      -39.48177
C         24.15704       43.23209      -40.35263
C         36.73743       47.58020      -48.69636
C         26.06792       43.44686      -43.75523
C         26.74841       44.32503      -41.46962
C         25.78898       43.54499      -42.31162
C         34.13593       47.53067      -48.80623
C         28.47676       44.37362      -43.43041
C         31.48277       47.52459      -48.87418
C         27.49393       43.42973      -44.14634
C         23.76178       47.33793      -49.16576
C         22.80745       47.57249      -51.63147
C         39.09392       43.93808      -46.74846
C         21.89651       47.88856      -54.05639
C         21.05176       48.13954      -56.31884
C         28.25223       43.85535      -50.09426
C         27.30844       44.56005      -52.27954
C         26.51729       44.89917      -54.67672
C         25.81305       45.12725      -57.13800
C         36.66929       43.91324      -46.93303
C         39.19729       46.07987      -48.76613
C         34.11579       43.87849      -47.09722
C         37.99343       44.19241      -47.61703
C         36.76118       46.05372      -48.87473
C         31.60339       43.66910      -47.30965
C         38.03947       45.25657      -48.63962
C         35.42399       44.23171      -47.68646
C         34.15752       46.05447      -48.97696
C         27.07770       43.95651      -50.95815
C         26.25877       44.41196      -53.30844
C         35.45378       45.34059      -48.69522
C         32.88891       44.14673      -47.86490
C         25.46449       44.73142      -55.72115
C         31.50613       46.00603      -49.04395
C         24.67040       45.04371      -57.98312
C         32.86154       45.33108      -48.78295
C         30.49290       43.74264      -48.26639
C         30.32983       45.04039      -49.08633
C         23.84325       45.81592      -49.34298
C         22.84394       46.09952      -51.81750
C         21.92872       46.36705      -54.25378
C         21.07596       46.64676      -56.52448
C         24.47096       44.78922      -48.38813
C         23.62604       45.31217      -50.80287
C         22.69283       45.57649      -53.23073
C         25.68064       43.86255      -50.47051
C         21.75048       45.75442      -55.64068
C         24.85170       44.30007      -52.83301
C         24.00757       44.61642      -55.23677
C         23.23634       44.92952      -57.51941
C         25.32021       43.67927      -49.05873
C         24.61623       44.34427      -51.36485
C         23.76647       44.67530      -53.75873
C         22.83676       44.89770      -56.15087
C         29.74437       42.50122      -48.54225
C         28.58962       42.54697      -49.45918
C         29.35973       42.39994      -45.54746
C         27.98721       42.33546      -44.99282
C         25.70430       42.42954      -48.35494
C         25.54158       42.36939      -46.88423
C         29.98294       41.21652      -47.79355
C         29.80511       41.16948      -46.29819
C         27.76501       41.26944      -49.54976
C         26.34507       41.21691      -49.00494
C         27.18781       41.09909      -45.28415
C         25.99787       41.11079      -46.20777
C         29.72192       39.92186      -48.52747
C         28.53936       39.93996      -49.47228
C         29.35377       39.83285      -45.73160
C         27.94067       39.79801      -45.19458
C         25.91814       39.86185      -48.44255
C         25.72402       39.81658      -46.94164
C         30.04122       38.60500      -47.85168
C         29.84687       38.55994      -46.35489
C         27.81155       38.62156      -49.62909
C         26.40644       38.58363      -49.08025
C         27.19428       38.50124      -45.32191
C         26.01309       38.50803      -46.25955
C         29.78149       37.32311      -48.59197
C         28.59976       37.32955      -49.53886
C         29.38057       37.24984      -45.76992
C         27.96808       37.22000      -45.22276
C         25.94935       37.26543      -48.49890
C         25.73543       37.23058      -46.99969
C         30.09040       36.00343      -47.91609
C         29.86970       35.96417      -46.37685
C         27.87837       36.00926      -49.68395
C         26.43107       35.97580      -49.11789
C         27.23288       35.91051      -45.34710
C         26.01701       35.91509      -46.31761
C         29.89761       34.73127      -48.74142
C         28.73180       34.73342      -49.67351
C         29.44083       34.65986      -45.69178
C         28.04919       34.63242      -45.14822
C         25.86137       34.66966      -48.54982
C         25.63819       34.64030      -47.07345
C         30.13869       33.57671      -47.93097
C         29.91550       33.53678      -46.43751
C         27.89095       33.57807      -49.72758
C         26.48562       33.54650      -49.17686
C         27.22894       33.48538      -45.38671
C         26.04793       33.48949      -46.32944
C         24.13355       47.95570      -46.54807
