349
angstrom
C   8.0433 -8.3270  0.8235
C   8.0890 -8.3025 -0.5687
C   6.7111 -9.2572 -2.8447
C   5.5625 -10.0223 -2.9341
C   3.7140 -10.8354 -0.8724
C   3.6542 -10.8524  0.6470
C   5.3325 -10.1146  2.8771
C   6.4889 -9.3589  2.9498
C   6.3905 -8.0084  2.6304
C   7.1114 -7.5360  1.5111
C   6.5623 -6.4489  0.8215
C   6.6014 -6.4280 -0.6035
C   7.2015 -7.4898 -1.2898
C   6.5674 -7.9233 -2.4742
C   5.3959 -7.2328 -2.8896
C   4.2340 -7.9899 -3.0620
C   4.3384 -9.3764 -2.7681
C   3.4047 -9.8589 -1.6850
C   2.6362 -8.7957 -0.9215
C   2.5820 -8.8073  0.6647
C   3.2857 -9.8946  1.4574
C   4.1348 -9.4487  2.6187
C   4.0109 -8.0743  2.9567
C   5.1922 -7.3267  2.9716
C   5.0245 -5.9656  2.6820
C   5.6592 -5.6001  1.4956
C   5.0857 -4.5583  0.7958
C   5.1101 -4.5447 -0.6073
C   5.7292 -5.5637 -1.3032
C   5.1771 -5.8901 -2.5411
C   4.0228 -5.1342 -2.9635
C   2.8713 -5.8652 -3.1851
C   3.0116 -7.2796 -2.9100
C   2.3443 -7.6486 -1.5923
C   1.6760 -6.5957 -0.8731
C   1.6479 -6.5893  0.5910
C   2.2530 -7.6673  1.3341
C   2.8200 -7.3393  2.7018
C   2.6646 -5.9377  3.0256
C   3.8469 -5.2190  3.0340
C   3.7125 -3.8485  2.7078
C   4.3086 -3.6063  1.4631
C   4.3483 -3.5826 -1.2815
C   3.8140 -3.7881 -2.5639
C   2.7013 -2.9711 -2.9963
C   1.5090 -3.6964 -3.1487
C   1.6630 -5.1194 -2.9224
C   1.2345 -5.4869 -1.5139
C   1.1852 -5.4705  1.2080
C   1.5069 -5.1517  2.6671
C   1.3682 -3.7481  3.0061
C   2.5883 -3.0399  3.0776
C  -4.1038 -11.0961 -0.8263
C  -2.8961 -8.9874 -0.9344
C  -1.6941 -6.7196 -0.9290
C   0.0416 -4.9477 -0.8795
C  -4.1873 -11.0485  0.3675
C  -3.6254 -10.0707 -1.6992
C  -2.9671 -8.9443  0.4492
C  -2.3628 -7.7932 -1.6536
C  -1.7216 -6.7072  0.4282
C  -1.1129 -5.5248 -1.5899
C   0.0265 -4.9401  0.4877
C  -3.8191 -9.9512  1.2040
C  -2.4838 -7.7250  1.1412
C  -1.1557 -5.5165  1.1057
C  -4.1624 -9.7482 -2.9013
C  -2.7766 -7.5106 -2.9242
C  -1.4068 -5.2227 -2.8929
C  -5.4217 -10.2839 -3.3374
C  -3.9806 -8.3054 -3.3429
C  -4.5321 -9.4915  2.2663
C  -2.5336 -6.0945 -3.4218
C  -3.0751 -7.3196  2.3063
C  -1.1693 -3.7444 -3.3659
C  -1.5817 -5.1419  2.3421
C  -5.8678 -9.9390  2.5419
C  -4.3738 -8.0072  2.5572
C  -2.8691 -5.8678  2.6622
C  -1.3355 -3.6914  2.7737
C  -6.4171 -9.6270 -3.4659
C  -5.1320 -7.5527 -3.5344
C  -3.6677 -5.3885 -3.7074
C  -2.3587 -3.0505 -3.5611
C  -6.4611 -8.2159 -3.2105
C  -6.8343 -9.2405  2.4111
C  -4.9437 -6.0996 -3.3066
C  -5.4910 -7.2005  2.3757
C  -3.5160 -3.9502 -3.4111
C  -3.9664 -5.0847  2.4277
C  -2.4900 -2.9423  2.6506
C  -6.7768 -7.8804  1.9543
C  -5.1745 -5.8094  1.9332
C  -3.5722 -3.7350  1.9157
C  -7.1309 -7.6923 -2.1494
C  -5.5061 -5.6740 -2.1300
C  -3.9827 -3.6757 -2.1944
C  -8.0255 -8.4013 -1.2924
C  -7.2780 -7.5041  0.7530
C  -6.4668 -6.5368 -1.4162
C  -5.5513 -5.5376  0.6528
C  -4.7868 -4.6031 -1.4374
C  -3.7620 -3.6038  0.5533
C  -3.6602 -2.3161 -1.6781
C  -8.0860 -8.3180 -0.0992
C  -6.5101 -6.4588 -0.0371
C  -4.7319 -4.5600 -0.0921
C  -3.2856 -2.3721 -0.2174
C   3.9559  0.7987 -2.8374
C   6.6417  0.8185 -2.8655
C   9.2780  0.8493 -2.8012
C  11.7247  0.7717 -2.8100
C   3.9749 -0.5874 -2.8793
C   5.3156  1.3677 -2.4159
C   6.6567 -0.5457 -2.9034
C   7.9595  1.4430 -2.4341
C   9.2915 -0.5407 -2.8326
C  10.5792  1.5417 -2.4157
C  11.7350 -0.4274 -2.8329
C   5.3414 -1.1383 -2.4824
C   7.9810 -1.1664 -2.4921
C  10.6009 -1.2284 -2.4693
C   5.4068  1.8499 -1.1525
C   7.9676  2.0188 -1.1959
C  10.5536  2.2402 -1.2517
C   4.2720  2.5437 -0.4970
C   6.7059  1.9890 -0.4731
C   5.4352 -1.6501 -1.2317
C   9.2469  2.2721 -0.4845
C   7.9947 -1.7805 -1.2721
C  11.6674  2.4722 -0.3870
C  10.5823 -1.9670 -1.3297
C   4.3069 -2.3752 -0.6002
C   6.7321 -1.7842 -0.5511
C   9.2745 -2.0389 -0.5658
C  11.6967 -2.2147 -0.4704
C   4.2707  2.5342  0.9129
C   6.7046  1.9758  0.8786
C   9.2453  2.2533  0.9012
C  11.6655  2.4522  0.8111
C   5.4035  1.8260  1.5540
C   4.2940 -2.3846  0.8091
C   7.9643  1.9799  1.6028
C   6.7255 -1.8019  0.8001
C  10.5501  2.1922  1.6664
C   9.2691 -2.0614  0.8200
C  11.6912 -2.2340  0.7277
C   5.4189 -1.6812  1.4733
C   7.9834 -1.8204  1.5270
C  10.5719 -2.0136  1.5890
C   5.3060  1.3055  2.8046
C   7.9526  1.3628  2.8232
C  10.5760  1.4545  2.8067
C   3.9420  0.7306  3.1932
C   5.3140 -1.2074  2.7421
C   6.6314  0.7238  3.2239
C   7.9632 -1.2495  2.7691
C   9.2720  0.7483  3.1615
C  10.5893 -1.3173  2.7550
C  11.7186  0.6665  3.1723
C   3.9429 -0.6587  3.1570
C   6.6339 -0.6376  3.1928
C   9.2759 -0.6388  3.1357
C  11.7242 -0.5326  3.1503
C   6.3285  9.5296 -2.7537
C   5.1144  7.4690 -2.7215
C   3.8449  5.3346 -2.7792
C   2.5934  3.1365 -2.8169
C   5.1361 10.2361 -2.7480
C   6.2727  8.1965 -2.3576
C   3.9059  8.1839 -2.7206
C   4.9889  6.1109 -2.3991
C   2.6577  6.0370 -2.8098
C   3.7078  3.9696 -2.4250
C   1.3691  3.8214 -2.8253
C   3.9952  9.5467 -2.3460
C   2.7752  7.4181 -2.4049
C   1.5066  5.2188 -2.5261
C   6.9358  7.8002 -1.1676
C   5.5783  5.7941 -1.1725
C   4.2775  3.7610 -1.1582
C   7.7810  8.6593 -0.4488
C   6.4133  6.6971 -0.4772
C   3.3455  9.9307 -1.1437
C   5.0188  4.7375 -0.4779
C   2.2307  7.7849 -1.1631
C   1.0733  5.5810 -1.1269
C   3.7087 11.0769 -0.4193
C   2.6306  8.9430 -0.4529
C   1.6131  6.7889 -0.4436
C   7.7824  8.6495  0.9474
C   6.4138  6.6874  0.9518
C   5.0186  4.7277  0.9281
C   6.9383  7.7808  1.6561
C   3.7110 11.0685  0.9776
C   5.5785  5.7755  1.6356
C   2.6317  8.9357  0.9873
C   4.2767  3.7417  1.5944
C   1.6102  6.7850  0.9545
C   3.3493  9.9139  1.6888
C   2.2307  7.7715  1.6847
C   1.0641  5.5766  1.6274
C   6.2787  8.1606  2.8534
C   4.9903  6.0766  2.8664
C   3.7035  3.9376  2.8631
C   6.3391  9.4872  3.2708
C   4.0028  9.5136  2.8840
C   5.1211  7.4289  3.2119
C   2.7791  7.3886  2.9200
C   3.8464  5.2966  3.2398
C   1.5019  5.1987  3.0206
C   2.5887  3.1044  3.2538
C   5.1474 10.1947  3.2893
C   3.9142  8.1459  3.2382
C   2.6617  6.0030  3.3037
C   1.3626  3.8009  3.2983
C  -5.2287 10.1447 -2.8112
C  -3.9789  8.1036 -2.7599
C  -2.6981  5.9718 -2.7945
C  -1.3886  3.8218 -2.8115
C  -6.4114  9.4234 -2.8580
C  -4.0893  9.4653 -2.3876
C  -5.1774  7.3750 -2.8090
C  -2.8493  7.3493 -2.4116
C  -3.8789  5.2561 -2.8452
C  -1.5759  5.2022 -2.4187
C  -2.5926  3.0968 -2.8626
C  -6.3510  8.0884 -2.4686
C  -5.0460  6.0143 -2.4969
C  -3.7403  3.8919 -2.5054
C  -3.4567  9.8591 -1.1804
C  -2.3151  7.7213 -1.1727
C  -1.1458  5.6127 -1.1452
C  -3.8403 11.0032 -0.4639
C  -2.7362  8.8803 -0.4803
C  -7.0291  7.6819 -1.2908
C  -1.6533  6.7331 -0.4683
C  -5.6617  5.6820 -1.2863
C  -0.1186  5.0020 -0.4605
C  -4.3540  3.6541 -1.2644
C  -7.8891  8.5333 -0.5802
C  -6.5090  6.5793 -0.5977
C  -5.1128  4.6215 -0.5895
C  -4.3383  2.4341 -0.6112
C  -3.8591 10.9948  0.9322
C  -2.7514  8.8745  0.9502
C  -1.6604  6.7329  0.9417
C  -0.1234  5.0026  0.9495
C  -3.4932  9.8421  1.6439
C  -7.9057  8.5213  0.8158
C  -2.3411  7.7120  1.6408
C  -6.5214  6.5697  0.8316
C  -1.1571  5.6142  1.6228
C  -5.1165  4.6176  0.8176
C  -4.3541  2.4397  0.8040
C  -7.0615  7.6589  1.5316
C  -5.6824  5.6658  1.5212
C  -4.3616  3.6473  1.4870
C  -4.1616  9.4277  2.8250
C  -2.9097  7.3223  2.8586
C  -1.6150  5.1931  2.8803
C  -5.3227 10.0900  3.2138
C  -6.4192  8.0441  2.7363
C  -4.0619  8.0592  3.1669
C  -5.1002  5.9774  2.7541
C  -2.7674  5.9391  3.2120
C  -3.7777  3.8676  2.7553
C  -1.4338  3.8101  3.2403
C  -6.5045  9.3675  3.1615
C  -5.2569  7.3253  3.1070
C  -3.9441  5.2163  3.1341
C  -2.6433  3.0785  3.1766
C  -11.6260  0.1373 -3.0669
C  -9.2078  0.4679 -3.0470
C  -6.5923  0.6892 -3.1118
C  -3.8906  0.7678 -3.1042
C  -11.5152 -1.0534 -3.1657
C  -10.5635  1.0065 -2.6439
C  -9.0838 -0.9094 -3.1934
C  -7.9449  1.1606 -2.6313
C  -6.5091 -0.6499 -3.3515
C  -5.2921  1.2629 -2.6010
C  -3.8542 -0.6022 -3.3466
C  -10.2969 -1.7582 -2.8822
C  -7.7195 -1.4262 -2.9314
C  -5.1780 -1.1923 -3.0896
C  -10.6098  1.6855 -1.4722
C  -8.0052  1.6931 -1.3768
C  -5.4231  1.6954 -1.3119
C  -11.7545  1.8035 -0.6274
C  -9.3180  1.8254 -0.6859
C  -10.1652 -2.5834 -1.8106
C  -6.7456  1.7611 -0.6360
C  -7.6043 -2.1069 -1.7445
C  -5.0832 -1.7675 -1.8847
C  -11.2347 -3.0118 -0.9687
C  -8.8454 -2.5157 -1.0452
C  -6.2979 -1.9718 -1.0400
C  -11.7727  1.7553  0.5687
C  -9.3398  1.7918  0.6981
C  -6.7709  1.7708  0.7234
C  -10.6519  1.5682  1.4337
C  -11.2282 -3.0422  0.2278
C  -8.0496  1.6388  1.4207
C  -8.8460 -2.5158  0.3347
C  -5.4787  1.7263  1.4488
C  -6.3283 -1.8331  0.3209
C  -3.9053 -1.2996  0.4376
C  -10.1572 -2.6652  1.0927
C  -7.6112 -2.0727  1.0418
C  -5.1487 -1.3705  1.0967
C  -10.6248  0.7476  2.5166
C  -8.0146  0.9715  2.6163
C  -5.3681  1.2080  2.7085
C  -11.6709 -0.2030  2.7753
C  -10.2945 -2.0057  2.2683
C  -9.2589  0.1753  2.8567
C  -7.7158 -1.6066  2.3278
C  -6.6552  0.4558  3.0445
C  -5.1552 -1.2479  2.4507
C  -3.9545  0.7025  3.1281
C  -11.5279 -1.3896  2.6681
C  -9.0977 -1.1963  2.7078
C  -6.5218 -0.8995  2.8947
C  -3.8836 -0.6741  3.0307
C   0.0227 -1.4792  3.1856
C   1.3215 -0.7235  3.2534
C   1.3112  0.8004  3.3032
C  -0.0108  1.5654  3.3134
C  -1.3132  0.8004  3.2757
C  -1.2809 -0.7105  3.1962
C   0.0093 -3.0038  3.0243
C   2.6381 -1.4761  3.1799
C   2.6333  1.5473  3.2637
C  -0.0265  3.0863  3.2922
C  -2.6574  1.5332  3.2117
C  -2.5651 -1.4565  3.0018
C   0.1176 -2.9876 -3.1435
C   2.6873 -1.4187 -2.9454
C   0.0432 -1.4931 -2.9158
C   1.3431 -0.6989 -2.9143
C  -2.6740 -1.6071 -2.8530
C   1.3208  0.8179 -2.8748
C  -1.2979 -0.7735 -2.7028
C   2.6394  1.5860 -2.8564
C  -1.3149  0.7691 -2.8052
C  -0.0011  1.5570 -2.8295
C  -0.0084  3.0901 -2.8160
C  -2.6114  1.5399 -2.9067
