876
angstrom
C   8.1744 -17.5222 -2.4157
C   8.8860 -18.8101 -1.9660
C   7.8126 -19.5897 -1.1112
C   7.8636 -19.5468  0.2479
C   9.0088 -18.7514  0.9674
C   8.3427 -17.4561  1.4638
C   6.8927 -17.7260  2.1989
C   6.2133 -16.4436  2.7219
C   7.1321 -15.1342  2.4235
C   6.8093 -14.6183  1.0350
C   5.4968 -15.1076  0.3395
C   5.4688 -15.1677 -1.0031
C   6.7468 -14.6998 -1.7977
C   6.8784 -15.2265 -3.2369
C   5.9382 -16.5438 -3.4473
C   6.6647 -17.8233 -2.9985
C   5.6687 -18.7883 -2.1631
C   6.4728 -20.0458 -1.8152
C   5.5397 -21.0335 -1.0558
C   5.5872 -20.9611  0.4813
C   6.5917 -19.9586  1.0971
C   5.8189 -18.6870  1.4823
C   4.3210 -18.9336  2.1841
C   3.5836 -17.6383  2.5384
C   4.5879 -16.3658  2.3964
C   4.2383 -15.5082  1.1681
C   2.9068 -15.9421  0.4427
C   2.8619 -15.9968 -0.8945
C   4.1476 -15.6204 -1.7187
C   4.3577 -16.4827 -2.9708
C   3.3515 -17.7747 -2.9964
C   4.1165 -19.0679 -2.7041
C   3.1756 -20.0954 -1.9090
C   4.0974 -21.3152 -1.6615
C   4.2064 -21.1924  1.2332
C   3.3047 -19.9659  1.5168
C   1.6518 -20.0672  1.8664
C   0.9347 -18.7950  2.0759
C   1.9394 -17.5280  2.1930
C   1.6302 -16.3237  1.2612
C   0.2104 -16.3055  0.5517
C   0.1608 -16.3578 -0.8032
C   1.5261 -16.4304 -1.6027
C   1.7507 -17.6808 -2.4977
C   0.7629 -18.9561 -2.2545
C   1.4965 -20.2222 -2.0790
C  -6.7709 -14.6566 -2.3920
C  -6.3210 -13.9515 -1.3434
C  -4.9669 -14.3928 -0.6801
C  -4.9178 -14.3509  0.6693
C  -6.2214 -13.8726  1.4021
C  -6.5990 -14.5317  2.5084
C  -5.6680 -15.7412  3.0284
C  -6.4688 -17.0686  2.9708
C  -8.0261 -16.8139  2.5352
C  -8.5516 -17.5771  1.5473
C  -7.6048 -18.6039  0.8560
C  -7.6615 -18.6458 -0.5025
C  -8.6571 -17.6477 -1.1783
C  -8.2019 -16.9294 -2.2335
C  -6.6792 -17.2188 -2.7625
C  -5.8744 -15.8994 -2.9140
C  -4.2932 -16.0967 -2.4473
C  -3.7611 -15.0553 -1.4788
C  -2.4782 -15.6149 -0.7287
C  -2.4300 -15.5691  0.6111
C  -3.6582 -14.9651  1.4148
C  -4.1037 -15.9281  2.5063
C  -3.1424 -17.2500  2.7249
C  -3.9737 -18.5357  2.6844
C  -5.5509 -18.1842  2.2138
C  -6.4047 -19.2987  1.6213
C  -5.4032 -20.1484  0.8151
C  -5.4692 -20.2031 -0.5335
C  -6.5307 -19.3982 -1.3114
C  -5.7197 -18.3282 -2.0328
C  -4.1608 -18.7061 -2.5577
C  -3.3378 -17.4229 -2.6931
C  -1.6912 -17.5074 -2.3546
C  -1.2561 -16.2650 -1.5097
C  -1.1523 -16.1583  1.3465
C  -1.5122 -17.3332  2.3094
C  -0.6276 -18.7118  2.1494
C  -1.4558 -19.9196  2.0388
C  -3.1236 -19.6803  1.9182
C  -4.1674 -20.7732  1.5471
C  -4.3078 -20.8841 -1.3249
C  -3.2713 -19.8214 -1.7776
C  -1.6093 -20.1001 -1.9808
C  -0.7966 -18.8865 -2.2046
C  -1.6673 -28.0581 -1.9882
C  -2.7591 -28.1136 -1.2131
C  -3.1079 -26.9078 -0.3734
C  -2.1680 -26.7794  0.8469
C  -2.3639 -27.7784  1.9583
C  -1.7562 -27.5872  3.1429
C  -0.9123 -26.3469  3.4114
C   0.5919 -26.4815  3.0877
C   1.0711 -27.8916  2.7556
C   1.9243 -28.1583  1.7494
C   2.5310 -27.0731  0.8835
C   1.7895 -26.9989 -0.4507
C   1.8238 -28.2237 -1.3295
C   1.1937 -28.1127 -2.5193
C   0.4103 -26.8280 -2.8309
C  -0.8129 -26.8079 -1.9179
C  -1.6291 -25.4962 -2.0274
C  -2.9920 -25.6453 -1.2882
C  -3.4210 -24.3616 -0.5659
C  -3.0879 -24.3499  0.9536
C  -1.9617 -25.3235  1.3130
C  -1.5828 -25.0976  2.7708
C  -0.7871 -23.7333  2.8270
C   0.7259 -23.9336  2.5844
C   1.0259 -25.4130  2.0760
C   2.4465 -25.6902  1.5970
C   2.7373 -24.5319  0.7063
C   2.6505 -24.5999 -0.6421
C   2.2775 -25.8496 -1.3441
C   1.2738 -25.5597 -2.4984
C   0.4769 -24.1634 -2.4346
C  -0.7799 -24.2433 -1.5984
C  -1.5563 -22.8610 -1.6444
C  -3.0532 -23.0551 -1.3246
C  -3.6161 -21.9286 -0.5528
C  -3.5285 -21.8679  0.7824
C  -2.8515 -22.9250  1.5686
C  -1.3595 -22.6491  1.8218
C  -0.6999 -21.2179  1.9421
C   0.7932 -21.2989  1.8609
C   1.3184 -22.8031  1.6497
C   2.7811 -23.1883  1.3890
C   3.4455 -22.2125  0.5321
C   3.4025 -22.2778 -0.8051
C   2.7078 -23.3514 -1.4978
C   1.2685 -22.9484 -1.8423
C   0.6561 -21.4719 -1.9625
C  -0.8473 -21.4203 -1.8847
C  16.8469 -3.5485  2.1430
C  18.3281 -3.5632  1.7076
C  16.1922 -2.1682  1.6338
C  18.9398 -2.1134  1.3260
C  16.0556 -4.9837  1.8920
C  18.7460 -4.9102  0.9386
C  16.8269 -6.4713  1.9490
C  18.3053 -6.3897  1.5595
C  15.3168 -2.2621  0.6152
C  20.0400 -2.0571  0.5406
C  16.0744 -7.9164  1.5621
C  18.8814 -7.7765  0.9199
C  16.7915 -9.3904  1.3422
C  18.2429 -9.3358  1.0847
C  15.2476 -4.8713  0.5979
C  20.2322 -4.8212  0.5903
C  16.0324 -10.7489  1.3541
C  15.0976 -3.4260 -0.0151
C  18.9581 -10.6792  0.8972
C  13.6622 -12.3145  2.0966
C  11.1959 -13.8221  2.4770
C  14.4329 -10.8974  1.6304
C  20.6487 -3.4060 -0.0428
C  12.0359 -12.4762  2.0422
C  16.7086 -12.0354  1.0834
C  21.2721 -12.0575  1.3102
C  20.5377 -10.8639  0.5965
C  18.2088 -11.9844  0.8820
C  14.3484 -13.6462  1.7753
C  14.8359 -7.6085  0.6760
C  11.9131 -15.1442  2.0854
C   9.6460 -13.9661  2.0843
C  23.5521 -13.4432  1.5521
C  20.3576 -7.4616  0.5368
C  20.6846 -13.2810  0.6523
C  22.8167 -12.1877  1.0202
C  14.9327 -6.2349 -0.0950
C  22.9499 -14.5457  0.7142
C  15.6954 -13.3768  0.9297
C  20.4937 -6.1067 -0.2114
C  19.1192 -13.2952  0.5923
C  13.2573 -14.8112  1.2530
C  13.4883 -10.0031  0.7659
C  25.0659 -13.4084  1.3581
C  10.8454 -16.2240  1.4389
C  21.4874 -9.6665  0.5467
C  21.4263 -14.6606  0.9089
C  11.4005 -11.7306  0.8809
C  14.1659 -8.8358 -0.0387
C  14.8384 -3.4727 -1.3495
C   9.2382 -13.3705  0.9375
C  20.6612 -3.3719 -1.5923
C  20.8931 -8.5816 -0.2374
C  23.6848 -15.8731  0.6699
C  23.6942 -10.9930  0.6560
C  12.4196 -10.8865  0.0532
C  15.1783 -2.1305 -2.0475
C  20.0873 -1.9855 -2.1111
C  25.6858 -12.4985  0.5928
C  10.2693 -12.5324  0.1624
C  22.8483 -9.9777 -0.1326
C  14.7862 -6.2235 -1.4157
C  16.1514 -14.7973  0.5064
C  20.5001 -6.0959 -1.5721
C  18.6229 -14.7257  0.2992
C  13.8552 -16.1119  0.6758
C  14.9093 -4.8311 -2.1485
C  24.8813 -11.5210 -0.2158
C  20.3011 -4.7705 -2.3372
C  11.5062 -17.4711  0.8430
C  21.0254 -15.5108 -0.2583
C  14.1045 -8.8499 -1.3949
C  17.3258 -14.7143 -0.3594
C  20.8565 -8.6037 -1.5772
C  23.1765 -16.8823 -0.0544
C  15.0010 -15.5854 -0.1808
C  16.2789 -2.1494 -2.8324
C  14.6735 -7.5975 -2.1783
C  19.0220 -1.9923 -2.9413
C  12.4150 -10.9762 -1.2797
C  19.5631 -15.6902 -0.5002
C  20.3182 -7.4625 -2.3377
C  12.6941 -16.9145 -0.0350
C  10.2665 -12.6257 -1.1863
C  22.7242 -10.2669 -1.6665
C  21.7971 -16.7681 -0.6715
C  16.0912 -4.8408 -3.1240
C  13.3850 -10.0648 -2.1040
C  18.8416 -4.8385 -2.7495
C  16.8403 -3.3692 -3.2366
C  24.3390 -12.2485 -1.4721
C  18.3581 -3.4184 -3.3865
C  21.4012 -9.7455 -2.3456
C  11.4525 -11.9887 -1.9404
C  17.2225 -14.7309 -1.6952
C  15.9389 -7.8277 -3.0789
C  16.7742 -6.3526 -3.1844
C   9.1595 -13.5159 -1.8699
C  18.8154 -7.7384 -2.6680
C  18.2813 -6.3354 -3.3164
C  14.9187 -15.5881 -1.5273
C  22.9745 -11.7344 -1.9565
C  19.3154 -15.8232 -2.0368
C  12.6224 -16.9173 -1.3921
C  15.9560 -14.7965 -2.3620
C  25.2898 -12.6687 -2.5627
C  16.6224 -9.3293 -2.9762
C  18.0990 -9.2892 -2.8402
C  18.3664 -14.7350 -2.5923
C  14.2084 -10.8775 -3.1065
C  21.6326 -16.9844 -2.2104
C  13.6988 -16.1249 -2.2425
C  20.3523 -10.8632 -2.6035
C  15.8353 -10.6993 -2.9940
C  18.7808 -10.6503 -2.7822
C  20.5965 -15.9928 -2.8763
C  11.8038 -12.5274 -3.1328
C  11.3445 -17.4648 -2.1193
C  16.5110 -12.0003 -2.8659
C  18.0216 -11.9596 -2.7996
C  15.4947 -13.3548 -2.6938
C  13.3313 -12.2425 -3.5937
C   9.3381 -13.8816 -3.3365
C  22.5715 -12.0583 -3.3807
C  18.9225 -13.3074 -2.7169
C  22.9138 -16.9956 -3.0109
C  20.9985 -12.0548 -3.4137
C  14.0673 -13.5991 -3.3990
C  13.0641 -14.8291 -2.7827
C  10.9189 -13.7837 -3.6958
C  24.7790 -13.1918 -3.6936
C  20.4824 -13.3154 -2.7403
C  21.1840 -14.6132 -3.3193
C  10.6242 -16.1999 -2.6143
C  11.6142 -15.1408 -3.4082
C  23.2724 -13.3480 -3.8806
C  23.4071 -15.8438 -3.4802
C  22.7168 -14.5491 -3.1180
C  10.3715 -18.3975  0.1808
C  10.3226 -18.4444 -1.3370
C   7.8622 -13.7252  0.2793
C   8.1201 -14.3828 -1.0502
C   9.4214 -16.5078  2.2010
C   8.7525 -15.1665  2.6426
C   9.1728 -16.5401 -3.2468
C   8.4563 -15.2311 -3.6914
C  -24.8000 13.0422  3.9916
C  -23.2810 12.9510  4.1591
C  -23.4608 15.5035  3.9670
C  -22.5600 14.3113  4.2901
C  -25.4807 12.3617  3.0507
C  -22.5871 12.0864  3.1022
C  -21.0879 11.7490  3.4951
C  -21.1554 14.3734  3.5952
C  -23.3271 16.2571  2.8666
C  -20.2619 13.0477  3.6290
C  -23.4671 10.8957  2.7299
C  -24.8045 11.3875  2.1103
C  -22.1054 -13.3233  3.3975
C  -20.3908 10.6870  2.5403
C  -22.8198 -12.3385  2.4760
C  -22.6628 -14.7404  3.2320
C  -19.0806 13.0423  2.5696
C  -24.3348 -12.3907  2.4514
C  -21.2529 14.8313  2.1496
C  -18.8026 10.4976  2.6497
C  -22.2176 15.9886  1.8921
C  -22.2231 -10.9236  2.5472
C  -18.0775 11.8114  2.6586
C  -20.6825 -10.9353  2.2283
C  -21.3787  9.5207  2.3865
C  -19.8604 -11.9544  2.9676
C  -20.6228 -13.3411  2.9398
C  -22.6166 10.1242  1.7830
C  -18.0742  9.1734  2.6321
C  -18.7223  7.6254  2.3652
C  -18.1763  0.5719  3.1291
C  -18.1863  3.3964  3.0630
C  -18.1759  6.2573  3.0047
C  -18.6546  4.7846  2.3689
C  -18.0656 -2.2764  3.1047
C  -24.4967 12.0544  0.7704
C  -18.6309  1.9521  2.4000
C  -16.5756 11.9171  2.6568
C  -19.9595 -9.5486  2.0958
C  -18.6093 -0.8493  2.4499
C  -17.8827 -5.1634  2.9007
C  -18.3512 -9.3774  2.2370
C  -25.6569 12.5931 -0.0235
C  -22.4614 -15.4362  2.0929
C  -18.4610 -3.6652  2.3738
C  -25.0246 -11.4919  1.7277
C  -18.6698 14.4923  2.2912
C  -17.6438 -8.0399  2.3071
C  -17.5878 -10.6715  2.2552
C  -18.5365 -11.9495  2.1188
C  -16.6994  3.4470  3.4510
C  -20.2351  7.3435  2.1908
C  -16.6471  0.5745  3.4334
C  -18.3396 -6.5080  2.1329
C  -16.6660  6.3510  3.2274
C  -16.6071  9.2579  2.7322
C  -16.0774 -10.7284  2.3055
C  -16.1691 -8.0773  2.4576
C  -19.8645 15.3147  1.7150
C  -16.5318 -2.2420  3.3525
C  -13.6865 -12.3703  2.8234
C  -16.3568 -5.1727  3.0415
C  -15.3760 -9.4350  2.4426
C  -15.6283 13.3120  2.4640
C  -20.8600  8.4709  1.5091
C  -15.8550 10.6334  2.7311
C  -11.3083 -13.9924  3.0274
C  -22.8176 -10.2494  1.3461
C  -20.1620  4.6429  2.1081
C  -15.1021 -12.0956  2.1018
C  -12.9187 -11.0504  2.8925
C  -20.5538 -13.8470  1.5033
C  -22.1527 16.6401  0.4903
C  -12.6913 -13.6183  2.2722
C  -14.1831 13.5636  3.1428
C  -10.4621 -12.6924  3.1138
C  -20.1290  1.9207  2.0478
C  -15.5037 -6.5782  2.6171
C  -15.9491  2.0243  3.1398
C  -15.9609  4.8793  3.0612
C  -20.9886 -8.4503  1.7664
C  -10.4121 -15.2807  2.5526
C  -15.8950  7.7876  2.8170
C  -15.9928 -0.7957  2.8864
C  -20.0748 -0.8914  2.0050
C  -22.7226 10.2351  0.4377
C  -23.4937 16.7469 -0.1906
C  -20.6766  5.9794  1.4959
C  -13.7369 -9.6041  2.5525
C  -15.7605 -3.6467  2.9067
C  -19.8372 -6.2534  1.8258
C  -19.9352 -3.6080  1.9188
C  -11.3107 -11.3211  2.6696
C  -13.4072 12.2373  3.1331
C  -23.7267 11.1301 -0.1905
C  -24.3227 -10.3206  1.0672
C  -18.0899 -13.3908  1.8174
C  -16.1596 14.7407  2.1394
C  -13.1957 14.8374  2.6212
C  -14.2330 10.8211  2.7645
C  -21.6757 -14.7632  1.0009
C  -8.9875 -13.0055  2.5554
C  -17.4618 14.6408  1.4431
C  -22.3276 -8.8597  1.0666
C  -20.4045  3.2904  1.3136
C  -25.3444 13.1418 -1.2157
C  -11.7141 15.1183  3.2386
C  -20.5128  0.5171  1.3401
C  -15.6317 -13.5157  1.7729
C  -20.1799 -2.2306  1.1794
C  -20.3889 -7.3477  1.0317
C  -19.1728 -14.2926  1.1285
C  -20.0558 -4.8899  1.1101
C  -19.7878 15.6604  0.1997
C  -13.3817 -14.8828  1.7889
C  -20.9778  8.5254  0.1743
C  -21.1664 15.8525 -0.4456
C  -10.9290 13.7851  3.2223
C  -10.7963 16.3897  2.7632
C  -23.9960 15.6773 -0.8135
C  -11.8600 12.5281  2.6999
C  -10.9071 -16.1092  1.6070
C  -13.8349 16.1151  2.0870
C  -16.8772 -13.4130  1.0239
C  -21.6700  9.6391 -0.4850
C  -12.8670 -8.6971  1.6112
C  -15.0915 15.5897  1.3515
C  -14.2879 -6.2342  1.6820
C  -14.7337  7.5123  1.8247
C  -15.2637  2.0512  1.7827
C  -15.0696  4.7911  1.8105
C  -15.2879 -0.7418  1.7316
C  -23.8658 13.2780 -1.6133
C  -14.5796 -14.3537  1.0004
C  -14.8050 -3.4815  1.7367
C  -23.0892 11.9372 -1.3549
C  -10.6845 -10.4851  1.5580
C  -20.7844  6.0258 -0.0385
C  -23.2396 14.3682 -0.7435
C  -24.6004 -9.9986 -0.4412
C  -13.4020  9.9295  1.7925
C  -8.5920 -12.3558  1.4494
C  -12.3594 -15.8645  1.0453
C  -21.3735 -15.4755 -0.3402
C  -17.5453 14.7444  0.1100
C  -9.4675 14.0096  2.6180
C  -11.3059 17.2630  1.8651
C  -20.4781  3.3226 -0.0447
C  -21.7255 14.5170 -1.0293
C  -13.6409 -7.4774  0.8946
C  -18.8410 14.7211 -0.5996
C  -20.4694  7.4505 -0.6956
C  -11.7867 -9.5764  0.8185
C  -20.5042  0.5442 -0.1782
C  -22.4487 -8.5634 -0.4619
C  -14.9596  6.1684  1.0475
C  -15.0307  0.6569  1.0307
C  -15.2652  3.4399  1.0298
C  -12.7110 16.8979  1.2668
C  -14.1595  8.7628  1.0595
C  -15.0343 -2.0975  0.9906
C  -14.5758 -4.8485  0.9448
C  -20.2215 -2.2054 -0.1780
C  -19.0534 -14.4330 -0.4306
C  -20.4520 -7.2831 -0.3048
C  -20.1056 -4.8557 -0.2379
C  -9.6012 -11.3499  0.7667
C  -21.4818 12.0193 -1.4069
C  -25.3268 -11.0738 -1.2176
C  -11.2154 11.5505  1.7365
C  -20.6968 10.7697 -0.8571
C  -22.6683 -15.6210 -1.0889
C  -20.9298 13.2058 -0.6454
C  -20.3568  4.7200 -0.7933
C  -23.2934 -9.5908 -1.2332
C  -16.9082 -13.4097 -0.3119
C  -15.1800 15.6641  0.0053
C  -20.3768 -14.6137 -1.1859
C  -12.3363 10.7524  0.9874
C  -20.2878  1.9823 -0.8714
C  -19.3557 13.2790 -0.8216
C  -21.0813 -8.2910 -1.1321
C  -20.1702 -0.8390 -0.9481
C  -14.6166 -14.3578 -0.3585
C  -16.3444 14.8978 -0.7208
C  -20.0560 -3.5511 -0.9984
C  -19.9460 -6.1664 -1.0424
C  -18.1437 -13.3657 -1.0830
C  -9.0984 13.2662  1.5611
C  -19.1145 10.6525 -1.1108
C  -12.4065 -15.8721 -0.4914
C  -24.6235 -12.0882 -1.7311
C  -18.9908  7.7492 -1.0574
C  -18.3998 11.9885 -1.1020
C  -15.0717  6.2041 -0.2852
C  -23.1501 -14.6083 -1.8249
C  -15.4100  3.4577 -0.3077
C  -15.7080 -13.5252 -1.0945
C  -11.8423 -9.5868 -0.5222
C  -12.7934 16.9622 -0.0896
C  -14.2618  8.8094 -0.2902
C  -10.1394 12.3253  0.9084
C  -13.7249 -7.4799 -0.4639
C  -15.2117 -2.0976 -0.3485
C  -14.7484 -4.8513 -0.3812
C  -15.8066  0.6818 -0.2546
C  -18.3776  9.3283 -1.2736
C  -22.4225 -10.7952 -1.7237
C  -14.0169 16.2539 -0.8301
C  -9.6499 -11.3706 -0.5834
C  -13.4747 -14.9082 -1.2005
C  -21.0121 -13.2407 -1.3737
C  -18.9028  4.8830 -1.2470
C  -20.1245 -9.4787 -1.2935
C  -14.9545  7.5990 -1.0253
C  -23.1463 -12.1352 -1.4302
C  -16.8878 12.0900 -1.3003
C  -15.3236  4.8528 -1.0628
C  -22.3996 -13.2977 -2.0455
C  -12.4279 10.8036 -0.3516
C  -18.8527  2.0377 -1.4210
C  -18.7157 -11.9393 -1.1085
C  -12.9945 -8.7086 -1.2389
C  -15.2573 -3.5050 -1.0432
C  -14.4977 -6.2265 -1.1646
C  -15.8886 13.4787 -1.1750
C  -15.5702  2.0649 -1.0566
C  -18.5140  6.4061 -1.8341
C  -20.9133 -10.8200 -1.2174
C  -15.5634 -0.6922 -1.0478
C  -11.0011 -16.1518 -1.1380
C  -18.7499 -0.7887 -1.5348
C  -20.1335 -11.9968 -1.7733
C  -18.4853 -6.4620 -1.4585
C  -18.6438 -3.6108 -1.6160
C  -13.6095 10.0350 -1.0507
C  -10.7923 -10.5209 -1.3184
C  -18.5212 -9.3581 -1.4786
C  -16.9304  9.4221 -1.5490
C  -18.5075  3.5198 -2.0617
C  -17.7714 -10.6687 -1.4600
C  -16.1819 10.8091 -1.5567
C  -17.8139 -8.0206 -1.6367
C  -16.2411  7.9423 -1.8219
C  -15.2341 -12.1031 -1.4746
C  -8.6899 -12.4089 -1.2985
C  -11.4631 17.3849 -0.8168
C  -17.0410  6.5111 -2.2234
C  -18.2955 -2.1939 -2.3048
C  -18.0637 -5.1021 -2.2222
C  -18.4498  0.6559 -2.2221
C  -16.2535 -10.7383 -1.6424
C  -16.3165  5.0178 -2.2191
C  -10.2211 12.3817 -0.4419
C  -15.7225 -6.5527 -2.0495
C  -16.3560 -8.0711 -1.8657
C  -16.0353 -3.5956 -2.1491
C  -14.5674 11.0140 -1.8002
C  -15.5625 -9.4443 -1.8776
C  -16.2788  2.1442 -2.4212
C  -17.0699  3.5881 -2.5983
C  -11.4054 11.6698 -1.1817
C  -16.5334 -5.1102 -2.5082
C  -16.1524 -0.7257 -2.4495
C  -13.4593 15.0231 -1.5429
C  -13.9264 -9.6381 -2.0924
C  -12.8281 -13.6580 -1.7710
C  -14.5231 13.7753 -2.0082
C  -16.7920 -2.2169 -2.6882
C  -16.9936  0.6904 -2.7650
C  -13.8687 -12.4129 -2.2832
C  -11.4918 -11.3816 -2.3650
C  -13.1190 -11.0974 -2.4737
C  -10.5769 -15.3627 -2.1491
C  -13.7670 12.4537 -2.1915
C  -11.5057 -14.0785 -2.6093
C  -12.1597 12.7264 -1.9642
C  -9.1585 -13.0962 -2.3512
C  -9.2529 13.3848 -1.1337
C  -10.6714 -12.7847 -2.8138
C  -11.0614 16.5904 -1.8363
C  -12.0453 15.3586 -2.3028
C  -11.2715 14.0331 -2.4947
C  -9.7263 14.2201 -2.0634
C  -7.0221 15.3426  2.4611
C  -5.9807 16.4747  2.8921
C  -8.2970 17.7469  2.6061
C  -6.6951 17.8562  2.9213
C  -6.6666 14.5057  1.4766
C  -4.5360 16.6014  2.1037
C  -3.3975 17.6969  2.5396
C  -5.7427 18.9151  2.1326
C  -8.8633 18.6539  1.7826
C  -4.1181 19.0621  2.5687
C  -4.0191 15.3198  1.5093
C  -5.2419 14.5759  0.8178
C  18.1446  2.1357  1.7686
C  -1.8967 17.7200  1.7849
C  16.6051  2.1011  1.9149
C  18.8585  0.7236  1.3712
C  -3.1806 20.1555  1.8459
C  16.0753  0.6368  1.5445
C  -6.5198 20.1775  1.8706
C  -0.7675 18.9168  1.9437
C  -7.9705 19.8523  1.2168
C  15.9528  3.4684  1.2240
C  -1.4789 20.2231  2.0085
C  16.3946  4.9643  1.7333
C  -1.4901 16.2809  1.3757
C  17.9367  4.9690  1.7084
C  18.5829  3.5321  1.0983
C  -2.7499 15.6783  0.6566
C   0.8198 18.8340  1.8880
C   1.8217 17.5282  1.6019
C   8.2739 14.3438  2.2747
C   5.8587 15.8482  2.2907
C   3.3606 17.3082  2.2350
C   4.3729 16.1582  1.6155
C  10.5901 12.7401  2.2576
C  -5.3247 14.6420 -0.7001
C   6.8290 14.7112  1.5966
C  -0.6039 21.4611  2.0429
C  15.6696  6.3795  1.1565
C   9.1949 13.1964  1.5528
C  12.9617 10.9971  2.1415
C  16.2209  7.9250  1.4532
C  -6.8102 14.6489 -1.2304
C  19.9855  0.7337  0.6241
C  11.4789 11.4792  1.5878
C  15.0164  0.5465  0.7225
C  -4.0945 21.4047  1.7535
C  15.4247  9.3137  1.5853
C  17.7101  7.8846  1.4587
C  18.4378  6.3721  1.1205
C   6.6691 17.1449  2.5290
C   1.2065 16.1419  1.3042
C   9.1011 15.6389  2.5810
C  13.7903  9.6586  1.4781
C   4.1687 18.6174  2.3846
C   1.6442 20.0648  1.9335
C  18.4103  9.2174  1.6116
C  16.1591 10.6004  1.6944
C  -5.5680 21.2038  1.1480
C  11.4292 14.0142  2.5419
C  20.7060 10.4871  2.5056
C  13.8030 12.2759  2.3245
C  17.6634 10.5113  1.7104
C  -1.1358 22.9823  1.9639
C  -0.1610 16.2429  0.5735
C   0.8956 21.3813  2.0067
C  22.9491 11.7647  3.1005
C  14.4923  3.3314  0.9282
C   3.6826 14.8535  1.2396
C  19.9989  9.4502  1.5242
C  19.8769 11.7830  2.6702
C  20.0781  3.4777  0.8957
C  -8.0450 19.9141 -0.3322
C  22.2008 10.8736  2.0755
C  -0.4644 24.0897  2.8799
C  22.1775 13.1036  3.3132
C   6.0484 13.4715  1.1778
C  15.2289 12.0266  1.6077
C   8.2259 16.9025  2.0408
C   5.7873 18.3782  1.9592
C  14.1465  6.1568  0.9586
C  24.4289 11.9494  2.7575
C   3.3148 19.8295  1.7264
C  10.6258 15.4048  2.1342
C   8.4060 11.9694  1.1135
C  -2.8088 15.7305 -0.6991
C  -9.0135 18.7768 -0.8946
C   2.2618 15.1626  0.5747
C  18.6440 11.7715  1.6875
C  12.9020 13.6809  1.9799
C  12.7707  8.5775  1.0079
C  10.6221 10.3320  1.0457
C  20.8392 13.0548  2.5231
C   1.0882 24.0015  2.8399
C  -4.1619 15.4170 -1.4469
C  14.2886  1.8950  0.1935
C  19.9686  6.1549  1.0059
C  -2.6065 23.3948  1.7654
C  -0.9092 25.5879  2.5280
C   1.5773 22.8314  1.8895
C  20.5731  2.1256  0.1559
C  23.0292 14.3472  3.0067
C  -3.3720 22.4205  0.9844
C  13.9006  4.7038  0.2568
C   4.7691 14.0255  0.4295
C  -7.2205 15.6085 -2.0546
C  -0.3059 26.7325  3.4010
C   7.0207 12.4185  0.4301
C  21.0282  8.3550  1.2251
C   9.4385 11.0688  0.3005
C  13.4654  7.3940  0.2287
C  20.5207  4.8358  0.2847
C  11.6264  9.3883  0.2566
C  -5.6234 21.2364 -0.4072
C  23.0860  9.7862  1.4950
C  -0.1948 16.2953 -0.7783
C  -6.6554 20.2701 -1.1019
C   1.2569 26.6443  3.3607
C  -0.8422 28.1260  3.0228
C  -8.5499 17.9470 -1.8484
C   1.6800 25.4407  2.4628
C  25.0369 11.3691  1.7051
C  -2.2586 25.9032  1.8944
C  20.5173  7.3113  0.3362
C  -1.5928 16.3770 -1.4798
C  18.1985 13.2133  1.4719
C  -2.5802 24.7264  1.0465
C  15.7756 13.4573  1.3567
C   4.3587 20.9421  1.4672
C   8.9701 18.0554  1.4010
C   6.6353 19.5340  1.4140
C  11.1608 16.2740  1.2274
C  -6.3466 16.6658 -2.3865
C  22.1744  9.0664  0.5701
C  13.5466 14.8979  1.3552
C  -4.7374 16.6966 -2.0038
C  20.4526 14.3031  1.7316
C   2.2844 15.2780 -0.9560
C  -6.9853 18.0524 -2.3242
C  14.3323  1.9626 -1.3563
C   3.0650 23.0741  1.5875
C  22.8427 15.1158  1.9191
C  24.3334 10.3929  0.7878
C  20.6144  2.1758 -1.4021
C  -3.4167 22.4640 -0.3540
C   1.9263 27.9692  2.9494
C  -1.6012 28.3521  1.9348
C   4.8181 14.1620 -0.9209
C  -5.9225 19.0266 -1.5438
C  17.0168 13.3230  0.6221
C  -4.2069 21.5001 -1.1289
C   1.1627 16.2666 -1.5771
C  19.3627 13.8906  0.8133
C   7.1501 12.6609 -1.0556
C  13.9930  4.7742 -1.2917
C   5.5788 20.3710  0.6681
C  10.3021 17.5000  0.6369
C   7.8476 18.8809  0.6122
C  -2.0492 27.1964  1.1259
C   3.6792 22.0298  0.7557
C  12.4489 15.7314  0.5558
C  14.7264 14.3047  0.5860
C   9.5163 11.2016 -1.0386
C  20.5842  4.9095 -1.2742
C  13.5414  7.4764 -1.1220
C  11.7010  9.4970 -1.0843
C  21.6950 14.8233  1.0380
C  -3.6268 17.8857 -2.3350
C  15.0626  0.6513 -1.9050
C   3.0091 25.6073  1.7370
C  -2.0215 17.8386 -1.7668
C  20.0484  0.8089 -2.0074
C  -4.3400 19.2309 -2.1269
C   3.7262 15.0584 -1.6440
C  14.6187  3.4416 -1.9873
C  20.5734  7.3917 -1.0005
C  -2.6255 24.7761 -0.3055
C  20.2007  3.5989 -2.0587
C   3.1386 24.4071  0.8718
C   6.1408 13.7299 -1.6982
C  -3.3043 20.2712 -1.4301
C  14.2723  6.2861 -1.8848
C   8.5306 12.2184 -1.7638
C  22.1856  9.2290 -0.7692
C  -2.6999 23.4963 -1.1165
C  10.7538 10.5555 -1.8076
C  12.9068  8.7575 -1.8336
C  20.0903  6.3119 -1.8743
C   2.6365 28.1138  1.8156
C  -0.8836 19.0600 -1.8393
C  23.9513 11.0488 -0.5526
C  16.1760  0.7431 -2.6404
C   1.7626 17.6774 -1.7959
C  -1.6032 20.3610 -1.7143
C   5.5615 20.4245 -0.6796
C  18.9598  0.8406 -2.8084
C   7.8244 18.8987 -0.7475
C  21.1755  8.5462 -1.6417
C  19.4632 13.9152 -0.5317
C  -2.0937 27.2484 -0.2274
C   3.6472 22.0847 -0.5762
C   2.8947 26.9198  0.9807
C  17.0696 13.3097 -0.7114
C  12.4402 15.7188 -0.8046
C  14.7015 14.2370 -0.7553
C   9.9547 17.0808 -0.7652
C   0.7252 18.9915 -1.8842
C  16.0957  3.5965 -2.1980
C  -2.3553 26.0166 -1.0790
C  21.7957 14.8829 -0.3086
C  23.1577 10.0901 -1.4593
C  18.7256  3.6564 -2.3480
C   4.4066 16.3921 -1.9108
C  15.8001  6.5290 -2.0399
C   4.3159 21.0729 -1.3981
C  16.7249  2.2363 -2.9363
C  -0.7202 21.6011 -1.6799
C   6.6217 19.6574 -1.5021
C  18.2570  2.2885 -3.1020
C   3.0983 24.4607 -0.4806
C   6.9282 15.0064 -2.0009
C  18.5671  6.5122 -2.0469
C  18.3780 13.2877 -1.3950
C  13.4677 14.7298 -1.4655
C  15.8503 13.5046 -1.5116
C  -1.2407 23.1080 -1.4303
C   8.9391 18.0716 -1.5438
C   3.3341 17.5381 -2.4396
C  16.5198  5.1254 -2.6805
C  11.2188 16.4246 -1.5571
C  25.0994 11.5248 -1.4108
C   9.3445 13.4698 -2.0947
C  18.0599  5.1564 -2.7629
C  13.9515  9.8773 -2.1736
C  11.6430 11.7434 -2.1982
C   2.9819 23.1876 -1.2930
C  20.6797 14.3924 -1.2387
C  16.3686  8.1041 -2.2030
C   1.5520 20.2274 -1.8504
C   5.9058 16.1306 -2.6204
C  17.8579  8.0567 -2.2247
C   0.7863 21.5312 -1.7439
C  15.5928  9.5117 -2.2523
C   3.2537 20.0063 -1.7722
C  20.2127  9.4370 -2.4606
C  23.0502 15.2627 -0.9997
C  -1.6963 28.4645 -0.9708
C   4.1041 18.8657 -2.5539
C  10.7572 13.0287 -2.8182
C  13.1417 11.2855 -2.7523
C   8.3703 14.6434 -2.7256
C  18.6009  9.3820 -2.2888
C   5.7917 18.6718 -2.3460
C   2.8521 26.9738 -0.3729
C  15.4454 12.2322 -2.2504
C  16.3553 10.7898 -2.2739
C  13.1114 13.9758 -2.5461
C   1.4742 22.9667 -1.5276
C  17.8751 10.7028 -2.2587
C   8.3319 17.3012 -2.7472
C   6.6709 17.4282 -2.9110
C   2.9163 25.7259 -1.2373
C  13.9987 12.5748 -2.9260
C  10.8014 15.7136 -2.8466
C  -1.0493 25.7544 -1.8180
C  18.8008 12.0293 -2.2300
C  22.5680 10.7389 -2.7559
C  -0.6215 24.2872 -2.2977
C  11.6286 14.2765 -3.1147
C   9.1683 15.9055 -3.1271
C  20.9585 10.7794 -2.8651
C  21.1453 13.2782 -2.2351
C  20.3761 11.8977 -2.0375
C  24.7846 11.9873 -2.6439
C   0.9326 24.2084 -2.3487
C  23.3063 12.0913 -3.0535
C   1.5415 25.6143 -1.8844
C  23.4250 14.4683 -2.0131
C   2.5434 28.2298 -1.0919
C  22.6790 13.1478 -2.1552
C  -1.0018 28.3251 -2.1146
C  -0.4869 26.9666 -2.6259
C   1.0760 26.8810 -2.6669
C   1.7670 28.1728 -2.1898
C  -10.0077 -17.2677  1.0018
C  -10.0656 -17.2958 -0.5477
C  -9.1206 -15.6902 -2.7801
C  -8.2818 -14.3637 -2.9011
C  -7.2865 -12.8600 -0.7130
C  -7.2225 -12.8053  0.7899
C  -8.0729 -14.2331  3.1020
C  -8.9115 -15.5659  3.0932
C  -9.2344 16.5536  3.1674
C  -10.3751 18.4358  1.2914
C  -8.4858 15.1842  3.1071
C  -10.4648 18.5091 -0.2567
C  -9.5446 16.8019 -2.3992
C  -7.7030 13.4914  0.8998
C  -8.7639 15.4522 -2.5240
C  -7.7935 13.5772 -0.6314
C  18.2784 -0.7103  1.7439
C  20.5997 -0.6403  0.0578
C  16.7674 -0.7344  2.0390
C  20.6374 -0.5970 -1.5212
C  18.3776 -0.5769 -3.3497
C  14.6395 -0.8931  0.1445
C  16.8680 -0.6618 -3.0523
C  14.6264 -0.7957 -1.4168
